/*---------------------------------------------------------------------------*\
  =========                 |
  \\      /  F ield         | OpenFOAM: The Open Source CFD Toolbox
   \\    /   O peration     | Website:  https://openfoam.org
    \\  /    A nd           | Version:  8
     \\/     M anipulation  |
\*---------------------------------------------------------------------------*/
Build  : 8-1c9b5879390b
Exec   : buoyantSimpleFoam
Date   : Jun 30 2026
Time   : 20:03:53
Host   : "ddd448fc6cb2"
PID    : 340
I/O    : uncollated
Case   : //case
nProcs : 1
sigFpe : Enabling floating point exception trapping (FOAM_SIGFPE).
fileModificationChecking : Monitoring run-time modified files using timeStampMaster (fileModificationSkew 10)
allowSystemOperations : Allowing user-supplied system call operations

// * * * * * * * * * * * * * * * * * * * * * * * * * * * * * * * * * * * * * //
Create time

Create mesh for time = 0


SIMPLE: Convergence criteria found
        p_rgh: tolerance 1e-05
        U: tolerance 0.0001
        e: tolerance 0.0001
        "(k|epsilon)": tolerance 0.0001

Reading thermophysical properties

Selecting thermodynamics package 
{
    type            heRhoThermo;
    mixture         pureMixture;
    transport       const;
    thermo          eConst;
    equationOfState Boussinesq;
    specie          specie;
    energy          sensibleInternalEnergy;
}

Reading field U

Reading/calculating face flux field phi

Creating turbulence model

Selecting turbulence model type RAS
Selecting RAS turbulence model kEpsilon
(RNGkEpsilonCoeffs|kEpsilonCoeffs|kOmegaSSTCoeffs)
{
    Prt             0.85;
    Cmu             0.09;
    C1              1.44;
    C2              1.92;
    C3              0;
    sigmak          1;
    sigmaEps        1.3;
}

Creating thermophysical transport model

Selecting thermophysical transport type RAS
Selecting default RAS thermophysical transport model eddyDiffusivity

Reading g

Reading hRef
Calculating field g.h


Reading pRef
Reading field p_rgh

No MRF models present

Radiation model not active: radiationProperties not found
Selecting radiationModel none
No finite volume options present

Starting time loop

fieldMinMax fieldMinMax1 write:
    min(mag(U)) = 0 in cell 54385 at location (2.522579 0.1715121 6.49)
    max(mag(U)) = 0.1732051 in cell 0 at location (0.07191981 0.06538825 0.07790307)
    min(T) = 291.45 in cell 0 at location (0.07191981 0.06538825 0.07790307)
    max(T) = 302.81 in cell 20103 at location (0.166335 0.1613782 2.92)
    min(p_rgh) = -0.005467436 in cell 12888 at location (4.218108 -0.0004598357 1.751578)
    max(p_rgh) = 38.04793 in cell 40393 at location (5.462781 3.2 1.89)

Time = 1

DILUPBiCGStab:  Solving for Ux, Initial residual = 1, Final residual = 0.0001241796, No Iterations 2
DILUPBiCGStab:  Solving for Uy, Initial residual = 1, Final residual = 0.0005921742, No Iterations 1
DILUPBiCGStab:  Solving for Uz, Initial residual = 1, Final residual = 0.0001285342, No Iterations 2
DILUPBiCGStab:  Solving for e, Initial residual = 1, Final residual = 0.0002798536, No Iterations 2
GAMG:  Solving for p_rgh, Initial residual = 0.86635, Final residual = 0.00691085, No Iterations 6
GAMG:  Solving for p_rgh, Initial residual = 0.1631101, Final residual = 0.00109033, No Iterations 4
GAMG:  Solving for p_rgh, Initial residual = 0.0110805, Final residual = 5.090706e-05, No Iterations 5
time step continuity errors : sum local = 0.0001370954, global = 1.719923e-06, cumulative = 1.719923e-06
DILUPBiCGStab:  Solving for epsilon, Initial residual = 0.1708737, Final residual = 8.402515e-06, No Iterations 2
DILUPBiCGStab:  Solving for k, Initial residual = 1, Final residual = 6.601682e-05, No Iterations 2
ExecutionTime = 7.36 s  ClockTime = 7 s

fieldMinMax fieldMinMax1 write:
    min(mag(U)) = 0 in cell 775 at location (0.4493906 0.09856304 1.75)
    max(mag(U)) = 5.701588 in cell 60937 at location (6.050758 3.171487 6.545193)
    min(T) = 291.3897 in cell 60937 at location (6.050758 3.171487 6.545193)
    max(T) = 302.81 in cell 20103 at location (0.166335 0.1613782 2.92)
    min(p_rgh) = -28.49561 in cell 7745 at location (1.210107 2.55 0.100243)
    max(p_rgh) = 30.82533 in cell 31216 at location (3.561279 0.3781038 4.086838)

Time = 2

DILUPBiCGStab:  Solving for Ux, Initial residual = 0.3826187, Final residual = 3.171359e-05, No Iterations 2
DILUPBiCGStab:  Solving for Uy, Initial residual = 0.5915249, Final residual = 4.027672e-05, No Iterations 2
DILUPBiCGStab:  Solving for Uz, Initial residual = 0.3392763, Final residual = 2.937198e-05, No Iterations 2
DILUPBiCGStab:  Solving for e, Initial residual = 0.7857681, Final residual = 0.000152919, No Iterations 2
GAMG:  Solving for p_rgh, Initial residual = 0.6961389, Final residual = 0.004435695, No Iterations 5
GAMG:  Solving for p_rgh, Initial residual = 0.05995156, Final residual = 0.0003155549, No Iterations 4
GAMG:  Solving for p_rgh, Initial residual = 0.005634514, Final residual = 5.235698e-05, No Iterations 4
time step continuity errors : sum local = 7.79513e-05, global = -5.799796e-09, cumulative = 1.714123e-06
DILUPBiCGStab:  Solving for epsilon, Initial residual = 0.408591, Final residual = 0.0003159785, No Iterations 1
DILUPBiCGStab:  Solving for k, Initial residual = 0.5626663, Final residual = 1.586107e-05, No Iterations 2
ExecutionTime = 10.76 s  ClockTime = 11 s

fieldMinMax fieldMinMax1 write:
    min(mag(U)) = 0 in cell 775 at location (0.4493906 0.09856304 1.75)
    max(mag(U)) = 3.40228 in cell 3968 at location (0.6450127 2.581836 0.03385927)
    min(T) = 291.3645 in cell 59383 at location (6.433508 0.3377256 6.926236)
    max(T) = 302.81 in cell 20103 at location (0.166335 0.1613782 2.92)
    min(p_rgh) = -50.60328 in cell 54691 at location (2.869679 2.55 6.604895)
    max(p_rgh) = 0 in cell 60937 at location (6.050629 3.2 6.545091)

Time = 3

DILUPBiCGStab:  Solving for Ux, Initial residual = 0.1340831, Final residual = 1.228123e-05, No Iterations 2
DILUPBiCGStab:  Solving for Uy, Initial residual = 0.3284973, Final residual = 2.847082e-05, No Iterations 2
DILUPBiCGStab:  Solving for Uz, Initial residual = 0.1093777, Final residual = 1.102812e-05, No Iterations 2
DILUPBiCGStab:  Solving for e, Initial residual = 0.1637202, Final residual = 2.967668e-05, No Iterations 2
GAMG:  Solving for p_rgh, Initial residual = 0.7087505, Final residual = 0.003226682, No Iterations 6
GAMG:  Solving for p_rgh, Initial residual = 0.1026789, Final residual = 0.000941844, No Iterations 3
GAMG:  Solving for p_rgh, Initial residual = 0.00829331, Final residual = 3.744411e-05, No Iterations 6
time step continuity errors : sum local = 4.157879e-05, global = 4.144446e-07, cumulative = 2.128568e-06
DILUPBiCGStab:  Solving for epsilon, Initial residual = 0.3173865, Final residual = 6.460283e-06, No Iterations 2
DILUPBiCGStab:  Solving for k, Initial residual = 0.2948996, Final residual = 7.589212e-06, No Iterations 2
ExecutionTime = 14.4 s  ClockTime = 15 s

fieldMinMax fieldMinMax1 write:
    min(mag(U)) = 0 in cell 775 at location (0.4493906 0.09856304 1.75)
    max(mag(U)) = 4.166443 in cell 18667 at location (3.481614 2.584373 0.03461903)
    min(T) = 291.3726 in cell 59789 at location (6.434037 0.6171893 6.926207)
    max(T) = 302.81 in cell 20103 at location (0.166335 0.1613782 2.92)
    min(p_rgh) = -38.52299 in cell 53848 at location (2.86968 2.55 6.528518)
    max(p_rgh) = 0 in cell 60937 at location (6.050629 3.2 6.545091)

Time = 4

DILUPBiCGStab:  Solving for Ux, Initial residual = 0.1035323, Final residual = 8.711633e-06, No Iterations 2
DILUPBiCGStab:  Solving for Uy, Initial residual = 0.1929608, Final residual = 1.181111e-05, No Iterations 2
DILUPBiCGStab:  Solving for Uz, Initial residual = 0.0896971, Final residual = 7.68821e-06, No Iterations 2
DILUPBiCGStab:  Solving for e, Initial residual = 0.08943443, Final residual = 1.486824e-05, No Iterations 2
GAMG:  Solving for p_rgh, Initial residual = 0.5338555, Final residual = 0.00439806, No Iterations 5
GAMG:  Solving for p_rgh, Initial residual = 0.04609364, Final residual = 0.0004148856, No Iterations 5
GAMG:  Solving for p_rgh, Initial residual = 0.004408034, Final residual = 3.167888e-05, No Iterations 5
time step continuity errors : sum local = 2.049199e-05, global = 1.195028e-07, cumulative = 2.248071e-06
DILUPBiCGStab:  Solving for epsilon, Initial residual = 0.1935005, Final residual = 4.585579e-06, No Iterations 2
DILUPBiCGStab:  Solving for k, Initial residual = 0.1619592, Final residual = 0.0001390952, No Iterations 1
ExecutionTime = 18.01 s  ClockTime = 18 s

fieldMinMax fieldMinMax1 write:
    min(mag(U)) = 0 in cell 775 at location (0.4493906 0.09856304 1.75)
    max(mag(U)) = 4.293135 in cell 18667 at location (3.481614 2.584373 0.03461903)
    min(T) = 291.3776 in cell 59960 at location (6.434112 0.7556352 6.926226)
    max(T) = 302.81 in cell 20103 at location (0.166335 0.1613782 2.92)
    min(p_rgh) = -33.24742 in cell 56854 at location (3.435169 2.549986 6.527522)
    max(p_rgh) = 0 in cell 60937 at location (6.050629 3.2 6.545091)

Time = 5

DILUPBiCGStab:  Solving for Ux, Initial residual = 0.05858354, Final residual = 5.958978e-06, No Iterations 2
DILUPBiCGStab:  Solving for Uy, Initial residual = 0.09769724, Final residual = 6.122759e-06, No Iterations 2
DILUPBiCGStab:  Solving for Uz, Initial residual = 0.04099266, Final residual = 3.67119e-06, No Iterations 2
DILUPBiCGStab:  Solving for e, Initial residual = 0.06288054, Final residual = 1.112797e-05, No Iterations 2
GAMG:  Solving for p_rgh, Initial residual = 0.4827915, Final residual = 0.004299518, No Iterations 6
GAMG:  Solving for p_rgh, Initial residual = 0.07177441, Final residual = 0.0004619634, No Iterations 5
GAMG:  Solving for p_rgh, Initial residual = 0.006519269, Final residual = 4.837848e-05, No Iterations 4
time step continuity errors : sum local = 2.398425e-05, global = 2.782347e-08, cumulative = 2.275894e-06
DILUPBiCGStab:  Solving for epsilon, Initial residual = 0.1346671, Final residual = 3.202386e-06, No Iterations 2
DILUPBiCGStab:  Solving for k, Initial residual = 0.1066901, Final residual = 6.963752e-05, No Iterations 1
ExecutionTime = 21.59 s  ClockTime = 22 s

fieldMinMax fieldMinMax1 write:
    min(mag(U)) = 0 in cell 775 at location (0.4493906 0.09856304 1.75)
    max(mag(U)) = 4.422269 in cell 18667 at location (3.481614 2.584373 0.03461903)
    min(T) = 291.3825 in cell 60113 at location (6.434134 0.8935445 6.926246)
    max(T) = 302.81 in cell 20103 at location (0.166335 0.1613782 2.92)
    min(p_rgh) = -29.3789 in cell 56854 at location (3.435169 2.549986 6.527522)
    max(p_rgh) = 2.726127 in cell 35139 at location (2.593416 1.408537 4.094449)

Time = 6

DILUPBiCGStab:  Solving for Ux, Initial residual = 0.04104014, Final residual = 3.154722e-06, No Iterations 2
DILUPBiCGStab:  Solving for Uy, Initial residual = 0.06421782, Final residual = 4.352447e-06, No Iterations 2
DILUPBiCGStab:  Solving for Uz, Initial residual = 0.03631275, Final residual = 2.949523e-06, No Iterations 2
DILUPBiCGStab:  Solving for e, Initial residual = 0.04883214, Final residual = 1.736004e-05, No Iterations 2
GAMG:  Solving for p_rgh, Initial residual = 0.3561003, Final residual = 0.003053732, No Iterations 4
GAMG:  Solving for p_rgh, Initial residual = 0.03101255, Final residual = 0.000214028, No Iterations 4
GAMG:  Solving for p_rgh, Initial residual = 0.003001722, Final residual = 2.458289e-05, No Iterations 4
time step continuity errors : sum local = 9.253283e-06, global = 1.118479e-07, cumulative = 2.387742e-06
DILUPBiCGStab:  Solving for epsilon, Initial residual = 0.1035301, Final residual = 2.457879e-06, No Iterations 2
DILUPBiCGStab:  Solving for k, Initial residual = 0.07818362, Final residual = 4.913817e-05, No Iterations 1
ExecutionTime = 24.81 s  ClockTime = 25 s

fieldMinMax fieldMinMax1 write:
    min(mag(U)) = 0 in cell 775 at location (0.4493906 0.09856304 1.75)
    max(mag(U)) = 4.586535 in cell 18667 at location (3.481614 2.584373 0.03461903)
    min(T) = 291.3867 in cell 60249 at location (6.434138 1.031191 6.926261)
    max(T) = 302.81 in cell 20103 at location (0.166335 0.1613782 2.92)
    min(p_rgh) = -26.4472 in cell 56854 at location (3.435169 2.549986 6.527522)
    max(p_rgh) = 1.599456 in cell 30143 at location (3.423469 0.1711209 4.089925)

Time = 7

DILUPBiCGStab:  Solving for Ux, Initial residual = 0.02524017, Final residual = 1.813838e-06, No Iterations 2
DILUPBiCGStab:  Solving for Uy, Initial residual = 0.03108585, Final residual = 2.249606e-06, No Iterations 2
DILUPBiCGStab:  Solving for Uz, Initial residual = 0.02154173, Final residual = 1.991026e-06, No Iterations 2
DILUPBiCGStab:  Solving for e, Initial residual = 0.04042975, Final residual = 7.8113e-06, No Iterations 2
GAMG:  Solving for p_rgh, Initial residual = 0.2702107, Final residual = 0.002147368, No Iterations 5
GAMG:  Solving for p_rgh, Initial residual = 0.02884316, Final residual = 0.0001932392, No Iterations 4
GAMG:  Solving for p_rgh, Initial residual = 0.002672286, Final residual = 1.85167e-05, No Iterations 4
time step continuity errors : sum local = 6.730237e-06, global = 2.601752e-09, cumulative = 2.390344e-06
DILUPBiCGStab:  Solving for epsilon, Initial residual = 0.084306, Final residual = 8.399833e-05, No Iterations 1
DILUPBiCGStab:  Solving for k, Initial residual = 0.06066424, Final residual = 3.763181e-05, No Iterations 1
ExecutionTime = 28.13 s  ClockTime = 28 s

fieldMinMax fieldMinMax1 write:
    min(mag(U)) = 0 in cell 775 at location (0.4493906 0.09856304 1.75)
    max(mag(U)) = 4.731269 in cell 18667 at location (3.481614 2.584373 0.03461903)
    min(T) = 291.3896 in cell 60474 at location (6.434135 1.306247 6.926272)
    max(T) = 302.81 in cell 20103 at location (0.166335 0.1613782 2.92)
    min(p_rgh) = -24.70282 in cell 59280 at location (3.482794 2.583775 7)
    max(p_rgh) = 1.151781 in cell 60976 at location (6.435983 3.162255 6.928232)

Time = 8

DILUPBiCGStab:  Solving for Ux, Initial residual = 0.02309829, Final residual = 1.918768e-06, No Iterations 2
DILUPBiCGStab:  Solving for Uy, Initial residual = 0.02302895, Final residual = 1.555913e-06, No Iterations 2
DILUPBiCGStab:  Solving for Uz, Initial residual = 0.01712689, Final residual = 1.760288e-06, No Iterations 2
DILUPBiCGStab:  Solving for e, Initial residual = 0.03492244, Final residual = 4.46589e-06, No Iterations 2
GAMG:  Solving for p_rgh, Initial residual = 0.1723429, Final residual = 0.001621638, No Iterations 4
GAMG:  Solving for p_rgh, Initial residual = 0.01325031, Final residual = 9.899363e-05, No Iterations 5
GAMG:  Solving for p_rgh, Initial residual = 0.001430168, Final residual = 1.361974e-05, No Iterations 4
time step continuity errors : sum local = 4.547029e-06, global = -5.547563e-08, cumulative = 2.334868e-06
DILUPBiCGStab:  Solving for epsilon, Initial residual = 0.07136189, Final residual = 6.906759e-05, No Iterations 1
DILUPBiCGStab:  Solving for k, Initial residual = 0.04895935, Final residual = 3.017227e-05, No Iterations 1
ExecutionTime = 31.45 s  ClockTime = 32 s

fieldMinMax fieldMinMax1 write:
    min(mag(U)) = 0 in cell 775 at location (0.4493906 0.09856304 1.75)
    max(mag(U)) = 4.851865 in cell 18667 at location (3.481614 2.584373 0.03461903)
    min(T) = 291.3923 in cell 60565 at location (6.434135 1.443749 6.926273)
    max(T) = 302.81 in cell 20103 at location (0.166335 0.1613782 2.92)
    min(p_rgh) = -25.09912 in cell 59280 at location (3.482794 2.583775 7)
    max(p_rgh) = 1.226395 in cell 60976 at location (6.435983 3.162255 6.928232)

Time = 9

DILUPBiCGStab:  Solving for Ux, Initial residual = 0.02075004, Final residual = 1.703918e-06, No Iterations 2
DILUPBiCGStab:  Solving for Uy, Initial residual = 0.01273332, Final residual = 8.888737e-07, No Iterations 2
DILUPBiCGStab:  Solving for Uz, Initial residual = 0.01431206, Final residual = 1.320663e-06, No Iterations 2
DILUPBiCGStab:  Solving for e, Initial residual = 0.03093619, Final residual = 3.780416e-06, No Iterations 2
GAMG:  Solving for p_rgh, Initial residual = 0.1319321, Final residual = 0.0007497047, No Iterations 5
GAMG:  Solving for p_rgh, Initial residual = 0.01120403, Final residual = 7.555789e-05, No Iterations 4
GAMG:  Solving for p_rgh, Initial residual = 0.001128853, Final residual = 1.063129e-05, No Iterations 4
time step continuity errors : sum local = 3.422431e-06, global = -3.99132e-08, cumulative = 2.294955e-06
DILUPBiCGStab:  Solving for epsilon, Initial residual = 0.0617055, Final residual = 5.768408e-05, No Iterations 1
DILUPBiCGStab:  Solving for k, Initial residual = 0.04067857, Final residual = 2.486859e-05, No Iterations 1
ExecutionTime = 34.99 s  ClockTime = 35 s

fieldMinMax fieldMinMax1 write:
    min(mag(U)) = 0 in cell 775 at location (0.4493906 0.09856304 1.75)
    max(mag(U)) = 4.957 in cell 18667 at location (3.481614 2.584373 0.03461903)
    min(T) = 291.3948 in cell 60643 at location (6.434135 1.58125 6.926274)
    max(T) = 302.81 in cell 20103 at location (0.166335 0.1613782 2.92)
    min(p_rgh) = -25.37888 in cell 59280 at location (3.482794 2.583775 7)
    max(p_rgh) = 1.298641 in cell 60976 at location (6.435983 3.162255 6.928232)

Time = 10

DILUPBiCGStab:  Solving for Ux, Initial residual = 0.0176881, Final residual = 1.279984e-06, No Iterations 2
DILUPBiCGStab:  Solving for Uy, Initial residual = 0.01185897, Final residual = 9.025126e-07, No Iterations 2
DILUPBiCGStab:  Solving for Uz, Initial residual = 0.01300463, Final residual = 1.144375e-06, No Iterations 2
DILUPBiCGStab:  Solving for e, Initial residual = 0.02794175, Final residual = 3.374423e-06, No Iterations 2
GAMG:  Solving for p_rgh, Initial residual = 0.1037643, Final residual = 0.0005818447, No Iterations 4
GAMG:  Solving for p_rgh, Initial residual = 0.006517739, Final residual = 4.647027e-05, No Iterations 4
GAMG:  Solving for p_rgh, Initial residual = 0.0006939746, Final residual = 5.41582e-06, No Iterations 6
time step continuity errors : sum local = 1.73695e-06, global = -1.477192e-08, cumulative = 2.280183e-06
DILUPBiCGStab:  Solving for epsilon, Initial residual = 0.05417315, Final residual = 4.878548e-05, No Iterations 1
DILUPBiCGStab:  Solving for k, Initial residual = 0.03460642, Final residual = 2.084168e-05, No Iterations 1
ExecutionTime = 38.45 s  ClockTime = 39 s

fieldMinMax fieldMinMax1 write:
    min(mag(U)) = 0 in cell 775 at location (0.4493906 0.09856304 1.75)
    max(mag(U)) = 5.048849 in cell 18667 at location (3.481614 2.584373 0.03461903)
    min(T) = 291.397 in cell 60764 at location (6.434133 1.856252 6.926274)
    max(T) = 302.81 in cell 20103 at location (0.166335 0.1613782 2.92)
    min(p_rgh) = -25.63845 in cell 59280 at location (3.482794 2.583775 7)
    max(p_rgh) = 1.295696 in cell 60976 at location (6.435983 3.162255 6.928232)

Time = 11

DILUPBiCGStab:  Solving for Ux, Initial residual = 0.01618094, Final residual = 1.115994e-06, No Iterations 2
DILUPBiCGStab:  Solving for Uy, Initial residual = 0.009543097, Final residual = 6.864658e-07, No Iterations 2
DILUPBiCGStab:  Solving for Uz, Initial residual = 0.01167758, Final residual = 9.796627e-07, No Iterations 2
DILUPBiCGStab:  Solving for e, Initial residual = 0.02562235, Final residual = 3.087414e-06, No Iterations 2
GAMG:  Solving for p_rgh, Initial residual = 0.08464479, Final residual = 0.0004225306, No Iterations 4
GAMG:  Solving for p_rgh, Initial residual = 0.005079588, Final residual = 3.836006e-05, No Iterations 4
GAMG:  Solving for p_rgh, Initial residual = 0.0005490805, Final residual = 4.486634e-06, No Iterations 4
time step continuity errors : sum local = 1.447084e-06, global = 1.132584e-08, cumulative = 2.291509e-06
DILUPBiCGStab:  Solving for epsilon, Initial residual = 0.04811805, Final residual = 4.17683e-05, No Iterations 1
DILUPBiCGStab:  Solving for k, Initial residual = 0.02986968, Final residual = 1.77559e-05, No Iterations 1
ExecutionTime = 41.66 s  ClockTime = 42 s

fieldMinMax fieldMinMax1 write:
    min(mag(U)) = 0 in cell 775 at location (0.4493906 0.09856304 1.75)
    max(mag(U)) = 5.12677 in cell 18667 at location (3.481614 2.584373 0.03461903)
    min(T) = 291.3989 in cell 60809 at location (6.434132 1.993752 6.926274)
    max(T) = 302.81 in cell 20103 at location (0.166335 0.1613782 2.92)
    min(p_rgh) = -25.90912 in cell 59280 at location (3.482794 2.583775 7)
    max(p_rgh) = 1.264982 in cell 60976 at location (6.435983 3.162255 6.928232)

Time = 12

DILUPBiCGStab:  Solving for Ux, Initial residual = 0.01604443, Final residual = 1.098916e-06, No Iterations 2
DILUPBiCGStab:  Solving for Uy, Initial residual = 0.008943965, Final residual = 6.251332e-07, No Iterations 2
DILUPBiCGStab:  Solving for Uz, Initial residual = 0.01076499, Final residual = 8.585004e-07, No Iterations 2
DILUPBiCGStab:  Solving for e, Initial residual = 0.02376882, Final residual = 2.97659e-06, No Iterations 2
GAMG:  Solving for p_rgh, Initial residual = 0.07181867, Final residual = 0.0005708198, No Iterations 3
GAMG:  Solving for p_rgh, Initial residual = 0.004200421, Final residual = 3.413351e-05, No Iterations 5
GAMG:  Solving for p_rgh, Initial residual = 0.0004973769, Final residual = 4.127908e-06, No Iterations 4
time step continuity errors : sum local = 1.334058e-06, global = -1.244648e-08, cumulative = 2.279062e-06
DILUPBiCGStab:  Solving for epsilon, Initial residual = 0.04314114, Final residual = 3.623437e-05, No Iterations 1
DILUPBiCGStab:  Solving for k, Initial residual = 0.02607458, Final residual = 1.542697e-05, No Iterations 1
ExecutionTime = 44.9 s  ClockTime = 45 s

fieldMinMax fieldMinMax1 write:
    min(mag(U)) = 0 in cell 775 at location (0.4493906 0.09856304 1.75)
    max(mag(U)) = 5.191682 in cell 18667 at location (3.481614 2.584373 0.03461903)
    min(T) = 291.4007 in cell 60852 at location (6.43413 2.268728 6.926288)
    max(T) = 302.81 in cell 20103 at location (0.166335 0.1613782 2.92)
    min(p_rgh) = -26.13465 in cell 59280 at location (3.477016 2.55 6.965121)
    max(p_rgh) = 1.234803 in cell 60976 at location (6.435983 3.162255 6.928232)

Time = 13

DILUPBiCGStab:  Solving for Ux, Initial residual = 0.015687, Final residual = 1.064613e-06, No Iterations 2
DILUPBiCGStab:  Solving for Uy, Initial residual = 0.008601589, Final residual = 5.849117e-07, No Iterations 2
DILUPBiCGStab:  Solving for Uz, Initial residual = 0.01017222, Final residual = 7.919e-07, No Iterations 2
DILUPBiCGStab:  Solving for e, Initial residual = 0.02223749, Final residual = 3.547879e-06, No Iterations 2
GAMG:  Solving for p_rgh, Initial residual = 0.06500284, Final residual = 0.000427816, No Iterations 3
GAMG:  Solving for p_rgh, Initial residual = 0.003608226, Final residual = 2.384537e-05, No Iterations 4
GAMG:  Solving for p_rgh, Initial residual = 0.000433492, Final residual = 2.939187e-06, No Iterations 4
time step continuity errors : sum local = 9.553738e-07, global = 9.268935e-09, cumulative = 2.288331e-06
DILUPBiCGStab:  Solving for epsilon, Initial residual = 0.03898203, Final residual = 3.184436e-05, No Iterations 1
DILUPBiCGStab:  Solving for k, Initial residual = 0.0229633, Final residual = 1.372416e-05, No Iterations 1
ExecutionTime = 48.07 s  ClockTime = 48 s

fieldMinMax fieldMinMax1 write:
    min(mag(U)) = 0 in cell 775 at location (0.4493906 0.09856304 1.75)
    max(mag(U)) = 5.246876 in cell 59280 at location (3.481614 2.584372 6.965381)
    min(T) = 291.402 in cell 60893 at location (6.434141 2.406186 6.926321)
    max(T) = 302.81 in cell 20103 at location (0.166335 0.1613782 2.92)
    min(p_rgh) = -26.3059 in cell 59280 at location (3.477016 2.55 6.965121)
    max(p_rgh) = 1.1995 in cell 60976 at location (6.435983 3.162255 6.928232)

Time = 14

DILUPBiCGStab:  Solving for Ux, Initial residual = 0.0151069, Final residual = 1.009075e-06, No Iterations 2
DILUPBiCGStab:  Solving for Uy, Initial residual = 0.00849992, Final residual = 5.786885e-07, No Iterations 2
DILUPBiCGStab:  Solving for Uz, Initial residual = 0.009736058, Final residual = 7.466806e-07, No Iterations 2
DILUPBiCGStab:  Solving for e, Initial residual = 0.02094175, Final residual = 7.1339e-06, No Iterations 2
GAMG:  Solving for p_rgh, Initial residual = 0.06012311, Final residual = 0.0003574404, No Iterations 3
GAMG:  Solving for p_rgh, Initial residual = 0.003248443, Final residual = 1.366892e-05, No Iterations 4
GAMG:  Solving for p_rgh, Initial residual = 0.0003410246, Final residual = 2.501976e-06, No Iterations 4
time step continuity errors : sum local = 8.207848e-07, global = -8.326414e-09, cumulative = 2.280005e-06
DILUPBiCGStab:  Solving for epsilon, Initial residual = 0.03540881, Final residual = 2.827117e-05, No Iterations 1
DILUPBiCGStab:  Solving for k, Initial residual = 0.02037605, Final residual = 1.247022e-05, No Iterations 1
ExecutionTime = 51.17 s  ClockTime = 51 s

fieldMinMax fieldMinMax1 write:
    min(mag(U)) = 0 in cell 775 at location (0.4493906 0.09856304 1.75)
    max(mag(U)) = 5.302277 in cell 59280 at location (3.481614 2.584372 6.965381)
    min(T) = 291.4031 in cell 60925 at location (6.434179 2.543641 6.926403)
    max(T) = 302.81 in cell 20103 at location (0.166335 0.1613782 2.92)
    min(p_rgh) = -26.43608 in cell 59280 at location (3.477016 2.55 6.965121)
    max(p_rgh) = 1.147602 in cell 60976 at location (6.435983 3.162255 6.928232)

Time = 15

DILUPBiCGStab:  Solving for Ux, Initial residual = 0.01474574, Final residual = 9.810123e-07, No Iterations 2
DILUPBiCGStab:  Solving for Uy, Initial residual = 0.008376153, Final residual = 5.73759e-07, No Iterations 2
DILUPBiCGStab:  Solving for Uz, Initial residual = 0.009361906, Final residual = 7.077003e-07, No Iterations 2
DILUPBiCGStab:  Solving for e, Initial residual = 0.01982612, Final residual = 3.208557e-06, No Iterations 2
GAMG:  Solving for p_rgh, Initial residual = 0.05594179, Final residual = 0.000278075, No Iterations 3
GAMG:  Solving for p_rgh, Initial residual = 0.00289552, Final residual = 2.597193e-05, No Iterations 3
GAMG:  Solving for p_rgh, Initial residual = 0.000302638, Final residual = 2.194806e-06, No Iterations 5
time step continuity errors : sum local = 7.271573e-07, global = -7.581633e-09, cumulative = 2.272423e-06
DILUPBiCGStab:  Solving for epsilon, Initial residual = 0.03230749, Final residual = 2.531139e-05, No Iterations 1
DILUPBiCGStab:  Solving for k, Initial residual = 0.0181829, Final residual = 1.145694e-05, No Iterations 1
ExecutionTime = 54.3 s  ClockTime = 54 s

fieldMinMax fieldMinMax1 write:
    min(mag(U)) = 0 in cell 775 at location (0.4493906 0.09856304 1.75)
    max(mag(U)) = 5.350805 in cell 59280 at location (3.481614 2.584372 6.965381)
    min(T) = 291.4037 in cell 60976 at location (6.433633 3.095704 6.926773)
    max(T) = 302.81 in cell 20103 at location (0.166335 0.1613782 2.92)
    min(p_rgh) = -26.53356 in cell 59280 at location (3.477016 2.55 6.965121)
    max(p_rgh) = 1.087319 in cell 5503 at location (1.486652 0.9964961 1.733391)

Time = 16

DILUPBiCGStab:  Solving for Ux, Initial residual = 0.01453968, Final residual = 9.747764e-07, No Iterations 2
DILUPBiCGStab:  Solving for Uy, Initial residual = 0.008315595, Final residual = 5.692747e-07, No Iterations 2
DILUPBiCGStab:  Solving for Uz, Initial residual = 0.009066157, Final residual = 6.732317e-07, No Iterations 2
DILUPBiCGStab:  Solving for e, Initial residual = 0.0188633, Final residual = 1.751293e-05, No Iterations 2
GAMG:  Solving for p_rgh, Initial residual = 0.05289866, Final residual = 0.0002680996, No Iterations 3
GAMG:  Solving for p_rgh, Initial residual = 0.002657488, Final residual = 1.426959e-05, No Iterations 4
GAMG:  Solving for p_rgh, Initial residual = 0.0002703052, Final residual = 2.077438e-06, No Iterations 5
time step continuity errors : sum local = 6.955895e-07, global = 5.484606e-09, cumulative = 2.277908e-06
DILUPBiCGStab:  Solving for epsilon, Initial residual = 0.02955771, Final residual = 2.282888e-05, No Iterations 1
DILUPBiCGStab:  Solving for k, Initial residual = 0.01630744, Final residual = 1.062875e-05, No Iterations 1
ExecutionTime = 57.51 s  ClockTime = 58 s

fieldMinMax fieldMinMax1 write:
    min(mag(U)) = 0 in cell 775 at location (0.4493906 0.09856304 1.75)
    max(mag(U)) = 5.393964 in cell 59280 at location (3.481614 2.584372 6.965381)
    min(T) = 291.404 in cell 60976 at location (6.433633 3.095704 6.926773)
    max(T) = 302.81 in cell 20103 at location (0.166335 0.1613782 2.92)
    min(p_rgh) = -26.60276 in cell 59280 at location (3.477016 2.55 6.965121)
    max(p_rgh) = 1.108957 in cell 5503 at location (1.486652 0.9964961 1.733391)

Time = 17

DILUPBiCGStab:  Solving for Ux, Initial residual = 0.01430502, Final residual = 9.73985e-07, No Iterations 2
DILUPBiCGStab:  Solving for Uy, Initial residual = 0.008295468, Final residual = 5.674777e-07, No Iterations 2
DILUPBiCGStab:  Solving for Uz, Initial residual = 0.008832701, Final residual = 6.447946e-07, No Iterations 2
DILUPBiCGStab:  Solving for e, Initial residual = 0.01802036, Final residual = 1.252567e-05, No Iterations 2
GAMG:  Solving for p_rgh, Initial residual = 0.05079461, Final residual = 0.0002816568, No Iterations 3
GAMG:  Solving for p_rgh, Initial residual = 0.002504317, Final residual = 1.140263e-05, No Iterations 4
GAMG:  Solving for p_rgh, Initial residual = 0.0002469064, Final residual = 2.14224e-06, No Iterations 4
time step continuity errors : sum local = 7.262651e-07, global = -6.400238e-09, cumulative = 2.271508e-06
DILUPBiCGStab:  Solving for epsilon, Initial residual = 0.02708984, Final residual = 2.071742e-05, No Iterations 1
DILUPBiCGStab:  Solving for k, Initial residual = 0.01469306, Final residual = 9.903796e-06, No Iterations 1
ExecutionTime = 60.61 s  ClockTime = 61 s

fieldMinMax fieldMinMax1 write:
    min(mag(U)) = 0 in cell 775 at location (0.4493906 0.09856304 1.75)
    max(mag(U)) = 5.43296 in cell 59280 at location (3.481614 2.584372 6.965381)
    min(T) = 291.4048 in cell 60976 at location (6.433633 3.095704 6.926773)
    max(T) = 302.81 in cell 20103 at location (0.166335 0.1613782 2.92)
    min(p_rgh) = -26.64797 in cell 59280 at location (3.477016 2.55 6.965121)
    max(p_rgh) = 1.12256 in cell 5503 at location (1.486652 0.9964961 1.733391)

Time = 18

DILUPBiCGStab:  Solving for Ux, Initial residual = 0.01405008, Final residual = 9.75341e-07, No Iterations 2
DILUPBiCGStab:  Solving for Uy, Initial residual = 0.008275293, Final residual = 5.695095e-07, No Iterations 2
DILUPBiCGStab:  Solving for Uz, Initial residual = 0.008636635, Final residual = 6.216879e-07, No Iterations 2
DILUPBiCGStab:  Solving for e, Initial residual = 0.01725845, Final residual = 1.288152e-05, No Iterations 2
GAMG:  Solving for p_rgh, Initial residual = 0.04919892, Final residual = 0.0002732505, No Iterations 3
GAMG:  Solving for p_rgh, Initial residual = 0.00235958, Final residual = 1.081548e-05, No Iterations 4
GAMG:  Solving for p_rgh, Initial residual = 0.0002315224, Final residual = 2.065125e-06, No Iterations 4
time step continuity errors : sum local = 7.096071e-07, global = -7.156679e-09, cumulative = 2.264351e-06
DILUPBiCGStab:  Solving for epsilon, Initial residual = 0.02486655, Final residual = 1.889635e-05, No Iterations 1
DILUPBiCGStab:  Solving for k, Initial residual = 0.01328658, Final residual = 9.226652e-06, No Iterations 1
ExecutionTime = 63.74 s  ClockTime = 64 s

fieldMinMax fieldMinMax1 write:
    min(mag(U)) = 0 in cell 775 at location (0.4493906 0.09856304 1.75)
    max(mag(U)) = 5.468657 in cell 59280 at location (3.481614 2.584372 6.965381)
    min(T) = 291.4061 in cell 60976 at location (6.433633 3.095704 6.926773)
    max(T) = 302.81 in cell 20103 at location (0.166335 0.1613782 2.92)
    min(p_rgh) = -26.67132 in cell 59280 at location (3.477016 2.55 6.965121)
    max(p_rgh) = 1.131758 in cell 5503 at location (1.486652 0.9964961 1.733391)

Time = 19

DILUPBiCGStab:  Solving for Ux, Initial residual = 0.01381872, Final residual = 9.813784e-07, No Iterations 2
DILUPBiCGStab:  Solving for Uy, Initial residual = 0.008243874, Final residual = 5.716373e-07, No Iterations 2
DILUPBiCGStab:  Solving for Uz, Initial residual = 0.008454539, Final residual = 6.021677e-07, No Iterations 2
DILUPBiCGStab:  Solving for e, Initial residual = 0.01657256, Final residual = 1.068949e-06, No Iterations 2
GAMG:  Solving for p_rgh, Initial residual = 0.04721663, Final residual = 0.0002610887, No Iterations 3
GAMG:  Solving for p_rgh, Initial residual = 0.002183857, Final residual = 1.100406e-05, No Iterations 4
GAMG:  Solving for p_rgh, Initial residual = 0.0002044829, Final residual = 1.749592e-06, No Iterations 5
time step continuity errors : sum local = 6.089171e-07, global = 5.703861e-09, cumulative = 2.270055e-06
DILUPBiCGStab:  Solving for epsilon, Initial residual = 0.02285467, Final residual = 1.727158e-05, No Iterations 1
DILUPBiCGStab:  Solving for k, Initial residual = 0.01206489, Final residual = 8.589805e-06, No Iterations 1
ExecutionTime = 66.97 s  ClockTime = 67 s

fieldMinMax fieldMinMax1 write:
    min(mag(U)) = 0 in cell 775 at location (0.4493906 0.09856304 1.75)
    max(mag(U)) = 5.501658 in cell 59280 at location (3.481614 2.584372 6.965381)
    min(T) = 291.408 in cell 60976 at location (6.433633 3.095704 6.926773)
    max(T) = 302.81 in cell 20103 at location (0.166335 0.1613782 2.92)
    min(p_rgh) = -26.67649 in cell 59280 at location (3.477016 2.55 6.965121)
    max(p_rgh) = 1.139062 in cell 5503 at location (1.486652 0.9964961 1.733391)

Time = 20

DILUPBiCGStab:  Solving for Ux, Initial residual = 0.0136042, Final residual = 9.913369e-07, No Iterations 2
DILUPBiCGStab:  Solving for Uy, Initial residual = 0.008204028, Final residual = 5.724305e-07, No Iterations 2
DILUPBiCGStab:  Solving for Uz, Initial residual = 0.008275675, Final residual = 5.844981e-07, No Iterations 2
DILUPBiCGStab:  Solving for e, Initial residual = 0.0159563, Final residual = 3.510634e-06, No Iterations 2
GAMG:  Solving for p_rgh, Initial residual = 0.04604032, Final residual = 0.0002575615, No Iterations 3
GAMG:  Solving for p_rgh, Initial residual = 0.002075994, Final residual = 1.12273e-05, No Iterations 4
GAMG:  Solving for p_rgh, Initial residual = 0.0001949384, Final residual = 1.783206e-06, No Iterations 5
time step continuity errors : sum local = 6.291919e-07, global = 5.200199e-09, cumulative = 2.275255e-06
DILUPBiCGStab:  Solving for epsilon, Initial residual = 0.02103945, Final residual = 1.57837e-05, No Iterations 1
DILUPBiCGStab:  Solving for k, Initial residual = 0.01101459, Final residual = 8.008946e-06, No Iterations 1
ExecutionTime = 70.2 s  ClockTime = 70 s

fieldMinMax fieldMinMax1 write:
    min(mag(U)) = 0 in cell 775 at location (0.4493906 0.09856304 1.75)
    max(mag(U)) = 5.532376 in cell 59280 at location (3.481614 2.584372 6.965381)
    min(T) = 291.4103 in cell 60976 at location (6.433633 3.095704 6.926773)
    max(T) = 302.81 in cell 20103 at location (0.166335 0.1613782 2.92)
    min(p_rgh) = -26.66782 in cell 59280 at location (3.477016 2.55 6.965121)
    max(p_rgh) = 1.143287 in cell 5503 at location (1.486652 0.9964961 1.733391)

Time = 21

DILUPBiCGStab:  Solving for Ux, Initial residual = 0.01340109, Final residual = 1.001159e-06, No Iterations 2
DILUPBiCGStab:  Solving for Uy, Initial residual = 0.008167817, Final residual = 5.717987e-07, No Iterations 2
DILUPBiCGStab:  Solving for Uz, Initial residual = 0.008107764, Final residual = 5.682748e-07, No Iterations 2
DILUPBiCGStab:  Solving for e, Initial residual = 0.01539992, Final residual = 1.173053e-06, No Iterations 2
GAMG:  Solving for p_rgh, Initial residual = 0.04473257, Final residual = 0.0002535289, No Iterations 3
GAMG:  Solving for p_rgh, Initial residual = 0.001957506, Final residual = 1.113939e-05, No Iterations 4
GAMG:  Solving for p_rgh, Initial residual = 0.0001808001, Final residual = 1.463815e-06, No Iterations 6
time step continuity errors : sum local = 5.237966e-07, global = -5.84503e-09, cumulative = 2.26941e-06
DILUPBiCGStab:  Solving for epsilon, Initial residual = 0.01942257, Final residual = 1.441047e-05, No Iterations 1
DILUPBiCGStab:  Solving for k, Initial residual = 0.01012351, Final residual = 7.536443e-06, No Iterations 1
ExecutionTime = 73.54 s  ClockTime = 74 s

fieldMinMax fieldMinMax1 write:
    min(mag(U)) = 0 in cell 775 at location (0.4493906 0.09856304 1.75)
    max(mag(U)) = 5.561064 in cell 59280 at location (3.481614 2.584372 6.965381)
    min(T) = 291.413 in cell 60976 at location (6.433633 3.095704 6.926773)
    max(T) = 302.81 in cell 20103 at location (0.166335 0.1613782 2.92)
    min(p_rgh) = -26.64876 in cell 59280 at location (3.477016 2.55 6.965121)
    max(p_rgh) = 1.144353 in cell 5503 at location (1.486652 0.9964961 1.733391)

Time = 22

DILUPBiCGStab:  Solving for Ux, Initial residual = 0.01319715, Final residual = 1.009122e-06, No Iterations 2
DILUPBiCGStab:  Solving for Uy, Initial residual = 0.008125722, Final residual = 5.703692e-07, No Iterations 2
DILUPBiCGStab:  Solving for Uz, Initial residual = 0.007951124, Final residual = 5.531404e-07, No Iterations 2
DILUPBiCGStab:  Solving for e, Initial residual = 0.01489713, Final residual = 7.56406e-06, No Iterations 2
GAMG:  Solving for p_rgh, Initial residual = 0.04333323, Final residual = 0.0002459538, No Iterations 3
GAMG:  Solving for p_rgh, Initial residual = 0.001865573, Final residual = 1.112207e-05, No Iterations 4
GAMG:  Solving for p_rgh, Initial residual = 0.0001743567, Final residual = 1.362724e-06, No Iterations 5
time step continuity errors : sum local = 4.945507e-07, global = -4.105546e-09, cumulative = 2.265304e-06
DILUPBiCGStab:  Solving for epsilon, Initial residual = 0.01796754, Final residual = 1.312764e-05, No Iterations 1
DILUPBiCGStab:  Solving for k, Initial residual = 0.009410202, Final residual = 7.185935e-06, No Iterations 1
ExecutionTime = 76.75 s  ClockTime = 77 s

fieldMinMax fieldMinMax1 write:
    min(mag(U)) = 0 in cell 775 at location (0.4493906 0.09856304 1.75)
    max(mag(U)) = 5.587837 in cell 59280 at location (3.481614 2.584372 6.965381)
    min(T) = 291.4161 in cell 60976 at location (6.433633 3.095704 6.926773)
    max(T) = 302.81 in cell 20103 at location (0.166335 0.1613782 2.92)
    min(p_rgh) = -26.62157 in cell 59280 at location (3.477016 2.55 6.965121)
    max(p_rgh) = 1.144802 in cell 5503 at location (1.486652 0.9964961 1.733391)

Time = 23

DILUPBiCGStab:  Solving for Ux, Initial residual = 0.01300089, Final residual = 1.015003e-06, No Iterations 2
DILUPBiCGStab:  Solving for Uy, Initial residual = 0.008084137, Final residual = 5.674748e-07, No Iterations 2
DILUPBiCGStab:  Solving for Uz, Initial residual = 0.007811502, Final residual = 5.389029e-07, No Iterations 2
DILUPBiCGStab:  Solving for e, Initial residual = 0.01444053, Final residual = 3.961712e-06, No Iterations 2
GAMG:  Solving for p_rgh, Initial residual = 0.04174596, Final residual = 0.0002382357, No Iterations 3
GAMG:  Solving for p_rgh, Initial residual = 0.001761706, Final residual = 1.114432e-05, No Iterations 4
GAMG:  Solving for p_rgh, Initial residual = 0.0001664268, Final residual = 1.628203e-06, No Iterations 6
time step continuity errors : sum local = 5.994298e-07, global = -6.746923e-09, cumulative = 2.258557e-06
DILUPBiCGStab:  Solving for epsilon, Initial residual = 0.01666647, Final residual = 1.192148e-05, No Iterations 1
DILUPBiCGStab:  Solving for k, Initial residual = 0.008879094, Final residual = 6.952735e-06, No Iterations 1
ExecutionTime = 80.08 s  ClockTime = 80 s

fieldMinMax fieldMinMax1 write:
    min(mag(U)) = 0 in cell 775 at location (0.4493906 0.09856304 1.75)
    max(mag(U)) = 5.612724 in cell 59280 at location (3.481614 2.584372 6.965381)
    min(T) = 291.4194 in cell 60976 at location (6.433633 3.095704 6.926773)
    max(T) = 302.81 in cell 20103 at location (0.166335 0.1613782 2.92)
    min(p_rgh) = -26.59063 in cell 59280 at location (3.477016 2.55 6.965121)
    max(p_rgh) = 1.14491 in cell 5503 at location (1.486652 0.9964961 1.733391)

Time = 24

DILUPBiCGStab:  Solving for Ux, Initial residual = 0.01281688, Final residual = 1.018257e-06, No Iterations 2
DILUPBiCGStab:  Solving for Uy, Initial residual = 0.008047111, Final residual = 5.6404e-07, No Iterations 2
DILUPBiCGStab:  Solving for Uz, Initial residual = 0.007680567, Final residual = 5.256842e-07, No Iterations 2
DILUPBiCGStab:  Solving for e, Initial residual = 0.01400737, Final residual = 2.418851e-06, No Iterations 2
GAMG:  Solving for p_rgh, Initial residual = 0.04054267, Final residual = 0.0002302443, No Iterations 3
GAMG:  Solving for p_rgh, Initial residual = 0.001684851, Final residual = 1.124522e-05, No Iterations 4
GAMG:  Solving for p_rgh, Initial residual = 0.0001608153, Final residual = 1.399647e-06, No Iterations 5
time step continuity errors : sum local = 5.229344e-07, global = -4.825001e-09, cumulative = 2.253732e-06
DILUPBiCGStab:  Solving for epsilon, Initial residual = 0.01548429, Final residual = 1.078893e-05, No Iterations 1
DILUPBiCGStab:  Solving for k, Initial residual = 0.008506026, Final residual = 6.888657e-06, No Iterations 1
ExecutionTime = 83.28 s  ClockTime = 83 s

fieldMinMax fieldMinMax1 write:
    min(mag(U)) = 0 in cell 775 at location (0.4493906 0.09856304 1.75)
    max(mag(U)) = 5.6357 in cell 59280 at location (3.481614 2.584372 6.965381)
    min(T) = 291.4228 in cell 60976 at location (6.433633 3.095704 6.926773)
    max(T) = 302.81 in cell 20103 at location (0.166335 0.1613782 2.92)
    min(p_rgh) = -26.55807 in cell 59280 at location (3.482794 2.583775 7)
    max(p_rgh) = 1.145072 in cell 5503 at location (1.486652 0.9964961 1.733391)

Time = 25

DILUPBiCGStab:  Solving for Ux, Initial residual = 0.01264099, Final residual = 1.017228e-06, No Iterations 2
DILUPBiCGStab:  Solving for Uy, Initial residual = 0.008016616, Final residual = 5.597215e-07, No Iterations 2
DILUPBiCGStab:  Solving for Uz, Initial residual = 0.007560594, Final residual = 5.140432e-07, No Iterations 2
DILUPBiCGStab:  Solving for e, Initial residual = 0.01359998, Final residual = 1.69307e-06, No Iterations 2
GAMG:  Solving for p_rgh, Initial residual = 0.03924929, Final residual = 0.0002221863, No Iterations 3
GAMG:  Solving for p_rgh, Initial residual = 0.00159134, Final residual = 1.110091e-05, No Iterations 4
GAMG:  Solving for p_rgh, Initial residual = 0.0001550051, Final residual = 7.531066e-07, No Iterations 4
time step continuity errors : sum local = 2.85621e-07, global = 2.383383e-09, cumulative = 2.256116e-06
DILUPBiCGStab:  Solving for epsilon, Initial residual = 0.01441261, Final residual = 9.727278e-06, No Iterations 1
DILUPBiCGStab:  Solving for k, Initial residual = 0.008273979, Final residual = 6.971594e-06, No Iterations 1
ExecutionTime = 86.38 s  ClockTime = 87 s

fieldMinMax fieldMinMax1 write:
    min(mag(U)) = 0 in cell 775 at location (0.4493906 0.09856304 1.75)
    max(mag(U)) = 5.656731 in cell 59280 at location (3.481614 2.584372 6.965381)
    min(T) = 291.4236 in cell 60877 at location (5.848952 3.190826 6.481092)
    max(T) = 302.81 in cell 20103 at location (0.166335 0.1613782 2.92)
    min(p_rgh) = -26.52472 in cell 59280 at location (3.482794 2.583775 7)
    max(p_rgh) = 1.145825 in cell 5503 at location (1.486652 0.9964961 1.733391)

Time = 26

DILUPBiCGStab:  Solving for Ux, Initial residual = 0.01246752, Final residual = 1.017959e-06, No Iterations 2
DILUPBiCGStab:  Solving for Uy, Initial residual = 0.007991862, Final residual = 5.547957e-07, No Iterations 2
DILUPBiCGStab:  Solving for Uz, Initial residual = 0.007450713, Final residual = 5.036891e-07, No Iterations 2
DILUPBiCGStab:  Solving for e, Initial residual = 0.0132244, Final residual = 1.292106e-06, No Iterations 2
GAMG:  Solving for p_rgh, Initial residual = 0.03829822, Final residual = 0.000214087, No Iterations 3
GAMG:  Solving for p_rgh, Initial residual = 0.001552666, Final residual = 1.118089e-05, No Iterations 4
GAMG:  Solving for p_rgh, Initial residual = 0.0001569006, Final residual = 7.710423e-07, No Iterations 4
time step continuity errors : sum local = 2.969732e-07, global = 3.615642e-09, cumulative = 2.259731e-06
DILUPBiCGStab:  Solving for epsilon, Initial residual = 0.01345099, Final residual = 8.733651e-06, No Iterations 1
DILUPBiCGStab:  Solving for k, Initial residual = 0.008170777, Final residual = 7.224989e-06, No Iterations 1
ExecutionTime = 89.48 s  ClockTime = 90 s

fieldMinMax fieldMinMax1 write:
    min(mag(U)) = 0 in cell 775 at location (0.4493906 0.09856304 1.75)
    max(mag(U)) = 5.675804 in cell 59280 at location (3.481614 2.584372 6.965381)
    min(T) = 291.4246 in cell 60877 at location (5.848952 3.190826 6.481092)
    max(T) = 302.81 in cell 20103 at location (0.166335 0.1613782 2.92)
    min(p_rgh) = -26.49272 in cell 59280 at location (3.481614 2.584372 6.965381)
    max(p_rgh) = 1.146735 in cell 5503 at location (1.486652 0.9964961 1.733391)

Time = 27

DILUPBiCGStab:  Solving for Ux, Initial residual = 0.01229973, Final residual = 1.022395e-06, No Iterations 2
DILUPBiCGStab:  Solving for Uy, Initial residual = 0.007977288, Final residual = 5.482623e-07, No Iterations 2
DILUPBiCGStab:  Solving for Uz, Initial residual = 0.007352409, Final residual = 4.948769e-07, No Iterations 2
DILUPBiCGStab:  Solving for e, Initial residual = 0.01286998, Final residual = 1.071457e-06, No Iterations 2
GAMG:  Solving for p_rgh, Initial residual = 0.03687595, Final residual = 0.0002074715, No Iterations 3
GAMG:  Solving for p_rgh, Initial residual = 0.001445217, Final residual = 1.090161e-05, No Iterations 4
GAMG:  Solving for p_rgh, Initial residual = 0.0001378833, Final residual = 7.225878e-07, No Iterations 4
time step continuity errors : sum local = 2.822572e-07, global = 1.719302e-10, cumulative = 2.259903e-06
DILUPBiCGStab:  Solving for epsilon, Initial residual = 0.01257875, Final residual = 7.804363e-06, No Iterations 1
DILUPBiCGStab:  Solving for k, Initial residual = 0.008175221, Final residual = 7.586114e-06, No Iterations 1
ExecutionTime = 92.59 s  ClockTime = 93 s

fieldMinMax fieldMinMax1 write:
    min(mag(U)) = 0 in cell 775 at location (0.4493906 0.09856304 1.75)
    max(mag(U)) = 5.692944 in cell 59280 at location (3.481614 2.584372 6.965381)
    min(T) = 291.4256 in cell 60877 at location (5.848952 3.190826 6.481092)
    max(T) = 302.81 in cell 20103 at location (0.166335 0.1613782 2.92)
    min(p_rgh) = -26.46312 in cell 59280 at location (3.481614 2.584372 6.965381)
    max(p_rgh) = 1.147872 in cell 5503 at location (1.486652 0.9964961 1.733391)

Time = 28

DILUPBiCGStab:  Solving for Ux, Initial residual = 0.01214335, Final residual = 1.02477e-06, No Iterations 2
DILUPBiCGStab:  Solving for Uy, Initial residual = 0.007969803, Final residual = 5.41473e-07, No Iterations 2
DILUPBiCGStab:  Solving for Uz, Initial residual = 0.007254314, Final residual = 4.872041e-07, No Iterations 2
DILUPBiCGStab:  Solving for e, Initial residual = 0.01254072, Final residual = 9.777923e-07, No Iterations 2
GAMG:  Solving for p_rgh, Initial residual = 0.03596217, Final residual = 0.0001988807, No Iterations 3
GAMG:  Solving for p_rgh, Initial residual = 0.00137775, Final residual = 1.069844e-05, No Iterations 4
GAMG:  Solving for p_rgh, Initial residual = 0.0001337214, Final residual = 9.800928e-07, No Iterations 4
time step continuity errors : sum local = 3.88126e-07, global = 4.509652e-09, cumulative = 2.264413e-06
DILUPBiCGStab:  Solving for epsilon, Initial residual = 0.0117989, Final residual = 6.947682e-06, No Iterations 1
DILUPBiCGStab:  Solving for k, Initial residual = 0.008257468, Final residual = 8.039439e-06, No Iterations 1
ExecutionTime = 95.71 s  ClockTime = 96 s

fieldMinMax fieldMinMax1 write:
    min(mag(U)) = 0 in cell 775 at location (0.4493906 0.09856304 1.75)
    max(mag(U)) = 5.708218 in cell 59280 at location (3.481614 2.584372 6.965381)
    min(T) = 291.4268 in cell 60877 at location (5.848952 3.190826 6.481092)
    max(T) = 302.81 in cell 20103 at location (0.166335 0.1613782 2.92)
    min(p_rgh) = -26.43604 in cell 59280 at location (3.481614 2.584372 6.965381)
    max(p_rgh) = 1.150352 in cell 47713 at location (2.731392 1.271875 5.391772)

Time = 29

DILUPBiCGStab:  Solving for Ux, Initial residual = 0.01198633, Final residual = 1.022327e-06, No Iterations 2
DILUPBiCGStab:  Solving for Uy, Initial residual = 0.007966065, Final residual = 5.354172e-07, No Iterations 2
DILUPBiCGStab:  Solving for Uz, Initial residual = 0.007162924, Final residual = 4.810971e-07, No Iterations 2
DILUPBiCGStab:  Solving for e, Initial residual = 0.01223014, Final residual = 3.282305e-06, No Iterations 2
GAMG:  Solving for p_rgh, Initial residual = 0.03473708, Final residual = 0.0001916525, No Iterations 3
GAMG:  Solving for p_rgh, Initial residual = 0.001316461, Final residual = 1.050258e-05, No Iterations 4
GAMG:  Solving for p_rgh, Initial residual = 0.0001267645, Final residual = 9.433264e-07, No Iterations 4
time step continuity errors : sum local = 3.786539e-07, global = 5.013694e-09, cumulative = 2.269427e-06
DILUPBiCGStab:  Solving for epsilon, Initial residual = 0.01110812, Final residual = 6.171046e-06, No Iterations 1
DILUPBiCGStab:  Solving for k, Initial residual = 0.008403115, Final residual = 4.405813e-07, No Iterations 2
ExecutionTime = 98.83 s  ClockTime = 99 s

fieldMinMax fieldMinMax1 write:
    min(mag(U)) = 0 in cell 775 at location (0.4493906 0.09856304 1.75)
    max(mag(U)) = 5.721718 in cell 59280 at location (3.481614 2.584372 6.965381)
    min(T) = 291.4281 in cell 60877 at location (5.848952 3.190826 6.481092)
    max(T) = 302.81 in cell 20103 at location (0.166335 0.1613782 2.92)
    min(p_rgh) = -26.41207 in cell 59280 at location (3.481614 2.584372 6.965381)
    max(p_rgh) = 1.217744 in cell 48796 at location (2.800528 1.271874 5.391835)

Time = 30

DILUPBiCGStab:  Solving for Ux, Initial residual = 0.01183948, Final residual = 1.01801e-06, No Iterations 2
DILUPBiCGStab:  Solving for Uy, Initial residual = 0.007969184, Final residual = 5.30913e-07, No Iterations 2
DILUPBiCGStab:  Solving for Uz, Initial residual = 0.00708157, Final residual = 4.763691e-07, No Iterations 2
DILUPBiCGStab:  Solving for e, Initial residual = 0.01193917, Final residual = 1.179064e-06, No Iterations 2
GAMG:  Solving for p_rgh, Initial residual = 0.03361549, Final residual = 0.0001836994, No Iterations 3
GAMG:  Solving for p_rgh, Initial residual = 0.001264363, Final residual = 1.033288e-05, No Iterations 4
GAMG:  Solving for p_rgh, Initial residual = 0.0001239009, Final residual = 1.175895e-06, No Iterations 5
time step continuity errors : sum local = 4.784022e-07, global = 7.39958e-09, cumulative = 2.276826e-06
DILUPBiCGStab:  Solving for epsilon, Initial residual = 0.01050899, Final residual = 5.510039e-06, No Iterations 1
DILUPBiCGStab:  Solving for k, Initial residual = 0.008604274, Final residual = 4.130536e-07, No Iterations 2
ExecutionTime = 102.06 s  ClockTime = 102 s

fieldMinMax fieldMinMax1 write:
    min(mag(U)) = 0 in cell 775 at location (0.4493906 0.09856304 1.75)
    max(mag(U)) = 5.74114 in cell 16616 at location (3.146205 2.581093 0.03263806)
    min(T) = 291.4294 in cell 60877 at location (5.848952 3.190826 6.481092)
    max(T) = 302.81 in cell 20103 at location (0.166335 0.1613782 2.92)
    min(p_rgh) = -26.3909 in cell 59280 at location (3.481614 2.584372 6.965381)
    max(p_rgh) = 1.301973 in cell 48796 at location (2.800528 1.271874 5.391835)

Time = 31

DILUPBiCGStab:  Solving for Ux, Initial residual = 0.01169792, Final residual = 1.011197e-06, No Iterations 2
DILUPBiCGStab:  Solving for Uy, Initial residual = 0.007978244, Final residual = 5.270842e-07, No Iterations 2
DILUPBiCGStab:  Solving for Uz, Initial residual = 0.007009177, Final residual = 4.734042e-07, No Iterations 2
DILUPBiCGStab:  Solving for e, Initial residual = 0.01166803, Final residual = 9.395385e-07, No Iterations 2
GAMG:  Solving for p_rgh, Initial residual = 0.03236915, Final residual = 0.0001766187, No Iterations 3
GAMG:  Solving for p_rgh, Initial residual = 0.001219625, Final residual = 1.006044e-05, No Iterations 4
GAMG:  Solving for p_rgh, Initial residual = 0.0001193128, Final residual = 6.733105e-07, No Iterations 4
time step continuity errors : sum local = 2.774107e-07, global = 6.448349e-10, cumulative = 2.277471e-06
DILUPBiCGStab:  Solving for epsilon, Initial residual = 0.01001374, Final residual = 4.990888e-06, No Iterations 1
DILUPBiCGStab:  Solving for k, Initial residual = 0.008856753, Final residual = 3.876315e-07, No Iterations 2
ExecutionTime = 105.18 s  ClockTime = 105 s

fieldMinMax fieldMinMax1 write:
    min(mag(U)) = 0 in cell 775 at location (0.4493906 0.09856304 1.75)
    max(mag(U)) = 5.774505 in cell 16616 at location (3.146205 2.581093 0.03263806)
    min(T) = 291.4309 in cell 60877 at location (5.848952 3.190826 6.481092)
    max(T) = 302.81 in cell 20103 at location (0.166335 0.1613782 2.92)
    min(p_rgh) = -26.37293 in cell 59280 at location (3.481614 2.584372 6.965381)
    max(p_rgh) = 1.388349 in cell 49924 at location (2.800527 1.203127 5.391893)

Time = 32

DILUPBiCGStab:  Solving for Ux, Initial residual = 0.01156946, Final residual = 1.005448e-06, No Iterations 2
DILUPBiCGStab:  Solving for Uy, Initial residual = 0.00799224, Final residual = 5.244176e-07, No Iterations 2
DILUPBiCGStab:  Solving for Uz, Initial residual = 0.00694159, Final residual = 4.716687e-07, No Iterations 2
DILUPBiCGStab:  Solving for e, Initial residual = 0.01141495, Final residual = 8.562597e-07, No Iterations 2
GAMG:  Solving for p_rgh, Initial residual = 0.03167151, Final residual = 0.0001702617, No Iterations 3
GAMG:  Solving for p_rgh, Initial residual = 0.00118324, Final residual = 9.826234e-06, No Iterations 4
GAMG:  Solving for p_rgh, Initial residual = 0.0001169932, Final residual = 6.663994e-07, No Iterations 4
time step continuity errors : sum local = 2.779259e-07, global = -1.415071e-09, cumulative = 2.276056e-06
DILUPBiCGStab:  Solving for epsilon, Initial residual = 0.009641897, Final residual = 4.573036e-06, No Iterations 1
DILUPBiCGStab:  Solving for k, Initial residual = 0.00917016, Final residual = 3.693355e-07, No Iterations 2
ExecutionTime = 108.32 s  ClockTime = 108 s

fieldMinMax fieldMinMax1 write:
    min(mag(U)) = 0 in cell 775 at location (0.4493906 0.09856304 1.75)
    max(mag(U)) = 5.806462 in cell 16616 at location (3.146205 2.581093 0.03263806)
    min(T) = 291.4324 in cell 60877 at location (5.848952 3.190826 6.481092)
    max(T) = 302.81 in cell 20103 at location (0.166335 0.1613782 2.92)
    min(p_rgh) = -26.35808 in cell 59280 at location (3.481614 2.584372 6.965381)
    max(p_rgh) = 1.471354 in cell 49924 at location (2.800527 1.203127 5.391893)

Time = 33

DILUPBiCGStab:  Solving for Ux, Initial residual = 0.0114291, Final residual = 1.001393e-06, No Iterations 2
DILUPBiCGStab:  Solving for Uy, Initial residual = 0.0080186, Final residual = 5.225254e-07, No Iterations 2
DILUPBiCGStab:  Solving for Uz, Initial residual = 0.006889601, Final residual = 4.728788e-07, No Iterations 2
DILUPBiCGStab:  Solving for e, Initial residual = 0.01117917, Final residual = 8.043023e-07, No Iterations 2
GAMG:  Solving for p_rgh, Initial residual = 0.03103303, Final residual = 0.000165286, No Iterations 3
GAMG:  Solving for p_rgh, Initial residual = 0.001161211, Final residual = 9.633738e-06, No Iterations 4
GAMG:  Solving for p_rgh, Initial residual = 0.0001148791, Final residual = 8.862562e-07, No Iterations 4
time step continuity errors : sum local = 3.741623e-07, global = -6.713266e-09, cumulative = 2.269343e-06
DILUPBiCGStab:  Solving for epsilon, Initial residual = 0.009407489, Final residual = 4.216004e-06, No Iterations 1
DILUPBiCGStab:  Solving for k, Initial residual = 0.009543325, Final residual = 3.571548e-07, No Iterations 2
ExecutionTime = 111.43 s  ClockTime = 112 s

fieldMinMax fieldMinMax1 write:
    min(mag(U)) = 0 in cell 775 at location (0.4493906 0.09856304 1.75)
    max(mag(U)) = 5.83751 in cell 16616 at location (3.146205 2.581093 0.03263806)
    min(T) = 291.4337 in cell 59229 at location (4.771295 3.133799 5.810007)
    max(T) = 302.81 in cell 20103 at location (0.166335 0.1613782 2.92)
    min(p_rgh) = -26.3464 in cell 59280 at location (3.481614 2.584372 6.965381)
    max(p_rgh) = 1.539332 in cell 48796 at location (2.800528 1.271874 5.391835)

Time = 34

DILUPBiCGStab:  Solving for Ux, Initial residual = 0.01128916, Final residual = 1.002776e-06, No Iterations 2
DILUPBiCGStab:  Solving for Uy, Initial residual = 0.008050316, Final residual = 5.213147e-07, No Iterations 2
DILUPBiCGStab:  Solving for Uz, Initial residual = 0.006844393, Final residual = 4.763519e-07, No Iterations 2
DILUPBiCGStab:  Solving for e, Initial residual = 0.01096106, Final residual = 7.660884e-07, No Iterations 2
GAMG:  Solving for p_rgh, Initial residual = 0.03047925, Final residual = 0.0001606697, No Iterations 3
GAMG:  Solving for p_rgh, Initial residual = 0.00112289, Final residual = 9.497176e-06, No Iterations 4
GAMG:  Solving for p_rgh, Initial residual = 0.0001104999, Final residual = 8.980063e-07, No Iterations 6
time step continuity errors : sum local = 3.839746e-07, global = 5.604229e-09, cumulative = 2.274947e-06
DILUPBiCGStab:  Solving for epsilon, Initial residual = 0.0092982, Final residual = 4.061021e-06, No Iterations 1
DILUPBiCGStab:  Solving for k, Initial residual = 0.009962251, Final residual = 3.495846e-07, No Iterations 2
ExecutionTime = 114.76 s  ClockTime = 115 s

fieldMinMax fieldMinMax1 write:
    min(mag(U)) = 0 in cell 775 at location (0.4493906 0.09856304 1.75)
    max(mag(U)) = 5.86806 in cell 16616 at location (3.146205 2.581093 0.03263806)
    min(T) = 291.4343 in cell 58602 at location (4.632989 3.133826 5.669982)
    max(T) = 302.81 in cell 20103 at location (0.166335 0.1613782 2.92)
    min(p_rgh) = -26.33748 in cell 59280 at location (3.481614 2.584372 6.965381)
    max(p_rgh) = 1.650976 in cell 48796 at location (2.800528 1.271874 5.391835)

Time = 35

DILUPBiCGStab:  Solving for Ux, Initial residual = 0.01116022, Final residual = 1.003125e-06, No Iterations 2
DILUPBiCGStab:  Solving for Uy, Initial residual = 0.008073865, Final residual = 5.208523e-07, No Iterations 2
DILUPBiCGStab:  Solving for Uz, Initial residual = 0.006805892, Final residual = 4.8405e-07, No Iterations 2
DILUPBiCGStab:  Solving for e, Initial residual = 0.0107571, Final residual = 7.363908e-07, No Iterations 2
GAMG:  Solving for p_rgh, Initial residual = 0.02999368, Final residual = 0.0001564325, No Iterations 3
GAMG:  Solving for p_rgh, Initial residual = 0.001097094, Final residual = 9.290688e-06, No Iterations 4
GAMG:  Solving for p_rgh, Initial residual = 0.0001075552, Final residual = 8.929701e-07, No Iterations 6
time step continuity errors : sum local = 3.865168e-07, global = 5.770744e-09, cumulative = 2.280718e-06
DILUPBiCGStab:  Solving for epsilon, Initial residual = 0.009337741, Final residual = 4.254023e-06, No Iterations 1
DILUPBiCGStab:  Solving for k, Initial residual = 0.01040037, Final residual = 3.475124e-07, No Iterations 2
ExecutionTime = 118.1 s  ClockTime = 118 s

fieldMinMax fieldMinMax1 write:
    min(mag(U)) = 0 in cell 775 at location (0.4493906 0.09856304 1.75)
    max(mag(U)) = 5.898464 in cell 16616 at location (3.146205 2.581093 0.03263806)
    min(T) = 291.4348 in cell 58230 at location (4.494688 3.1338 5.669973)
    max(T) = 302.81 in cell 20103 at location (0.166335 0.1613782 2.92)
    min(p_rgh) = -26.33222 in cell 59280 at location (3.481614 2.584372 6.965381)
    max(p_rgh) = 1.780409 in cell 48796 at location (2.800528 1.271874 5.391835)

Time = 36

DILUPBiCGStab:  Solving for Ux, Initial residual = 0.0110171, Final residual = 1.018166e-06, No Iterations 2
DILUPBiCGStab:  Solving for Uy, Initial residual = 0.008111714, Final residual = 5.218818e-07, No Iterations 2
DILUPBiCGStab:  Solving for Uz, Initial residual = 0.006772108, Final residual = 4.987641e-07, No Iterations 2
DILUPBiCGStab:  Solving for e, Initial residual = 0.01056607, Final residual = 7.128777e-07, No Iterations 2
GAMG:  Solving for p_rgh, Initial residual = 0.02977631, Final residual = 0.0001532824, No Iterations 3
GAMG:  Solving for p_rgh, Initial residual = 0.001076132, Final residual = 8.241418e-06, No Iterations 5
GAMG:  Solving for p_rgh, Initial residual = 0.0001042685, Final residual = 8.884067e-07, No Iterations 6
time step continuity errors : sum local = 3.891659e-07, global = 4.656832e-09, cumulative = 2.285375e-06
DILUPBiCGStab:  Solving for epsilon, Initial residual = 0.009581854, Final residual = 4.804167e-06, No Iterations 1
DILUPBiCGStab:  Solving for k, Initial residual = 0.01085768, Final residual = 3.470646e-07, No Iterations 2
ExecutionTime = 121.57 s  ClockTime = 122 s

fieldMinMax fieldMinMax1 write:
    min(mag(U)) = 0 in cell 775 at location (0.4493906 0.09856304 1.75)
    max(mag(U)) = 5.92899 in cell 16616 at location (3.146205 2.581093 0.03263806)
    min(T) = 291.4352 in cell 58230 at location (4.494688 3.1338 5.669973)
    max(T) = 302.81 in cell 15246 at location (0.3794494 1.342424 2.952986)
    min(p_rgh) = -26.33101 in cell 59280 at location (3.481614 2.584372 6.965381)
    max(p_rgh) = 1.891779 in cell 48796 at location (2.800528 1.271874 5.391835)

Time = 37

DILUPBiCGStab:  Solving for Ux, Initial residual = 0.01090177, Final residual = 1.034414e-06, No Iterations 2
DILUPBiCGStab:  Solving for Uy, Initial residual = 0.008163395, Final residual = 5.242468e-07, No Iterations 2
DILUPBiCGStab:  Solving for Uz, Initial residual = 0.006741782, Final residual = 5.194816e-07, No Iterations 2
DILUPBiCGStab:  Solving for e, Initial residual = 0.01038958, Final residual = 6.938169e-07, No Iterations 2
GAMG:  Solving for p_rgh, Initial residual = 0.02974752, Final residual = 0.0001518123, No Iterations 3
GAMG:  Solving for p_rgh, Initial residual = 0.001075924, Final residual = 8.674749e-06, No Iterations 5
GAMG:  Solving for p_rgh, Initial residual = 0.0001039735, Final residual = 9.773283e-07, No Iterations 6
time step continuity errors : sum local = 4.330479e-07, global = 5.690197e-09, cumulative = 2.291065e-06
DILUPBiCGStab:  Solving for epsilon, Initial residual = 0.009944753, Final residual = 5.910885e-06, No Iterations 1
DILUPBiCGStab:  Solving for k, Initial residual = 0.01131375, Final residual = 3.464068e-07, No Iterations 2
ExecutionTime = 125.03 s  ClockTime = 125 s

fieldMinMax fieldMinMax1 write:
    min(mag(U)) = 0 in cell 775 at location (0.4493906 0.09856304 1.75)
    max(mag(U)) = 5.959868 in cell 16616 at location (3.146205 2.581093 0.03263806)
    min(T) = 291.4357 in cell 57819 at location (4.356386 3.133774 5.669961)
    max(T) = 302.81 in cell 15246 at location (0.3794494 1.342424 2.952986)
    min(p_rgh) = -26.33412 in cell 59280 at location (3.481614 2.584372 6.965381)
    max(p_rgh) = 1.992233 in cell 48796 at location (2.800528 1.271874 5.391835)

Time = 38

DILUPBiCGStab:  Solving for Ux, Initial residual = 0.01083584, Final residual = 1.037836e-06, No Iterations 2
DILUPBiCGStab:  Solving for Uy, Initial residual = 0.008220989, Final residual = 5.288127e-07, No Iterations 2
DILUPBiCGStab:  Solving for Uz, Initial residual = 0.006716773, Final residual = 5.527657e-07, No Iterations 2
DILUPBiCGStab:  Solving for e, Initial residual = 0.01022383, Final residual = 6.779923e-07, No Iterations 2
GAMG:  Solving for p_rgh, Initial residual = 0.02944778, Final residual = 0.0001469245, No Iterations 3
GAMG:  Solving for p_rgh, Initial residual = 0.001061799, Final residual = 8.820093e-06, No Iterations 5
GAMG:  Solving for p_rgh, Initial residual = 0.0001044859, Final residual = 1.040356e-06, No Iterations 6
time step continuity errors : sum local = 4.665571e-07, global = 6.853065e-09, cumulative = 2.297918e-06
DILUPBiCGStab:  Solving for epsilon, Initial residual = 0.01017374, Final residual = 6.790065e-06, No Iterations 1
DILUPBiCGStab:  Solving for k, Initial residual = 0.01176095, Final residual = 3.496918e-07, No Iterations 2
ExecutionTime = 128.51 s  ClockTime = 129 s

fieldMinMax fieldMinMax1 write:
    min(mag(U)) = 0 in cell 775 at location (0.4493906 0.09856304 1.75)
    max(mag(U)) = 5.991389 in cell 16616 at location (3.146205 2.581093 0.03263806)
    min(T) = 291.4363 in cell 57346 at location (4.218085 3.13375 5.669949)
    max(T) = 302.81 in cell 15246 at location (0.3794494 1.342424 2.952986)
    min(p_rgh) = -26.34212 in cell 59280 at location (3.481614 2.584372 6.965381)
    max(p_rgh) = 2.39677 in cell 48796 at location (2.800528 1.271874 5.391835)

Time = 39

DILUPBiCGStab:  Solving for Ux, Initial residual = 0.01078203, Final residual = 1.033945e-06, No Iterations 2
DILUPBiCGStab:  Solving for Uy, Initial residual = 0.008265692, Final residual = 5.364785e-07, No Iterations 2
DILUPBiCGStab:  Solving for Uz, Initial residual = 0.006724038, Final residual = 6.086048e-07, No Iterations 2
DILUPBiCGStab:  Solving for e, Initial residual = 0.01007027, Final residual = 6.6484e-07, No Iterations 2
GAMG:  Solving for p_rgh, Initial residual = 0.02886231, Final residual = 0.000142029, No Iterations 3
GAMG:  Solving for p_rgh, Initial residual = 0.001030324, Final residual = 8.657224e-06, No Iterations 5
GAMG:  Solving for p_rgh, Initial residual = 0.0001023252, Final residual = 8.202741e-07, No Iterations 7
time step continuity errors : sum local = 3.721847e-07, global = -7.842547e-09, cumulative = 2.290075e-06
DILUPBiCGStab:  Solving for epsilon, Initial residual = 0.01027625, Final residual = 7.148608e-06, No Iterations 1
DILUPBiCGStab:  Solving for k, Initial residual = 0.01214788, Final residual = 3.605759e-07, No Iterations 2
ExecutionTime = 132.08 s  ClockTime = 132 s

fieldMinMax fieldMinMax1 write:
    min(mag(U)) = 0 in cell 775 at location (0.4493906 0.09856304 1.75)
    max(mag(U)) = 6.038029 in cell 58713 at location (3.146205 2.581093 6.967362)
    min(T) = 291.4367 in cell 56077 at location (4.079788 3.133749 5.529929)
    max(T) = 302.81 in cell 15246 at location (0.3794494 1.342424 2.952986)
    min(p_rgh) = -26.35584 in cell 59280 at location (3.481614 2.584372 6.965381)
    max(p_rgh) = 2.875043 in cell 48796 at location (2.800528 1.271874 5.391835)

Time = 40

DILUPBiCGStab:  Solving for Ux, Initial residual = 0.01074572, Final residual = 1.023975e-06, No Iterations 2
DILUPBiCGStab:  Solving for Uy, Initial residual = 0.008296706, Final residual = 5.472335e-07, No Iterations 2
DILUPBiCGStab:  Solving for Uz, Initial residual = 0.006739773, Final residual = 6.599669e-07, No Iterations 2
DILUPBiCGStab:  Solving for e, Initial residual = 0.009927712, Final residual = 6.54242e-07, No Iterations 2
GAMG:  Solving for p_rgh, Initial residual = 0.02824556, Final residual = 0.0001380145, No Iterations 3
GAMG:  Solving for p_rgh, Initial residual = 0.0009790778, Final residual = 8.272582e-06, No Iterations 6
GAMG:  Solving for p_rgh, Initial residual = 9.835967e-05, Final residual = 8.626506e-07, No Iterations 6
time step continuity errors : sum local = 3.96027e-07, global = 5.374241e-09, cumulative = 2.29545e-06
DILUPBiCGStab:  Solving for epsilon, Initial residual = 0.009945155, Final residual = 6.884606e-06, No Iterations 1
DILUPBiCGStab:  Solving for k, Initial residual = 0.01257312, Final residual = 3.781526e-07, No Iterations 2
ExecutionTime = 135.64 s  ClockTime = 136 s

fieldMinMax fieldMinMax1 write:
    min(mag(U)) = 0 in cell 775 at location (0.4493906 0.09856304 1.75)
    max(mag(U)) = 6.085886 in cell 58713 at location (3.146205 2.581093 6.967362)
    min(T) = 291.4371 in cell 56086 at location (3.941483 3.133713 5.66992)
    max(T) = 302.81 in cell 15246 at location (0.3794494 1.342424 2.952986)
    min(p_rgh) = -26.37549 in cell 59280 at location (3.481614 2.584372 6.965381)
    max(p_rgh) = 3.217362 in cell 48796 at location (2.800528 1.271874 5.391835)

Time = 41

DILUPBiCGStab:  Solving for Ux, Initial residual = 0.01071472, Final residual = 1.010838e-06, No Iterations 2
DILUPBiCGStab:  Solving for Uy, Initial residual = 0.008323734, Final residual = 5.590957e-07, No Iterations 2
DILUPBiCGStab:  Solving for Uz, Initial residual = 0.006741723, Final residual = 7.221217e-07, No Iterations 2
DILUPBiCGStab:  Solving for e, Initial residual = 0.009797181, Final residual = 6.461878e-07, No Iterations 2
GAMG:  Solving for p_rgh, Initial residual = 0.02746167, Final residual = 0.0001356925, No Iterations 3
GAMG:  Solving for p_rgh, Initial residual = 0.0009376718, Final residual = 8.768905e-06, No Iterations 6
GAMG:  Solving for p_rgh, Initial residual = 9.437488e-05, Final residual = 9.013508e-07, No Iterations 6
time step continuity errors : sum local = 4.186271e-07, global = 5.893013e-09, cumulative = 2.301343e-06
DILUPBiCGStab:  Solving for epsilon, Initial residual = 0.009835026, Final residual = 6.504016e-06, No Iterations 1
DILUPBiCGStab:  Solving for k, Initial residual = 0.01298821, Final residual = 3.947219e-07, No Iterations 2
ExecutionTime = 139.23 s  ClockTime = 139 s

fieldMinMax fieldMinMax1 write:
    min(mag(U)) = 0 in cell 775 at location (0.4493906 0.09856304 1.75)
    max(mag(U)) = 6.134638 in cell 58713 at location (3.146205 2.581093 6.967362)
    min(T) = 291.4375 in cell 56086 at location (3.941483 3.133713 5.66992)
    max(T) = 302.8101 in cell 15246 at location (0.3794494 1.342424 2.952986)
    min(p_rgh) = -26.40239 in cell 59280 at location (3.481614 2.584372 6.965381)
    max(p_rgh) = 3.374615 in cell 48796 at location (2.800528 1.271874 5.391835)

Time = 42

DILUPBiCGStab:  Solving for Ux, Initial residual = 0.01069292, Final residual = 1.001376e-06, No Iterations 2
DILUPBiCGStab:  Solving for Uy, Initial residual = 0.008338891, Final residual = 5.724728e-07, No Iterations 2
DILUPBiCGStab:  Solving for Uz, Initial residual = 0.006733157, Final residual = 8.060655e-07, No Iterations 2
DILUPBiCGStab:  Solving for e, Initial residual = 0.009672022, Final residual = 6.395713e-07, No Iterations 2
GAMG:  Solving for p_rgh, Initial residual = 0.02689689, Final residual = 0.0001331935, No Iterations 3
GAMG:  Solving for p_rgh, Initial residual = 0.0009041645, Final residual = 6.96791e-06, No Iterations 7
GAMG:  Solving for p_rgh, Initial residual = 9.094897e-05, Final residual = 7.852563e-07, No Iterations 4
time step continuity errors : sum local = 3.688322e-07, global = -1.120275e-08, cumulative = 2.29014e-06
DILUPBiCGStab:  Solving for epsilon, Initial residual = 0.009944059, Final residual = 7.253169e-06, No Iterations 1
DILUPBiCGStab:  Solving for k, Initial residual = 0.01338311, Final residual = 1.320704e-05, No Iterations 1
ExecutionTime = 142.69 s  ClockTime = 143 s

fieldMinMax fieldMinMax1 write:
    min(mag(U)) = 0 in cell 775 at location (0.4493906 0.09856304 1.75)
    max(mag(U)) = 6.184661 in cell 58713 at location (3.146205 2.581093 6.967362)
    min(T) = 291.4381 in cell 56086 at location (3.941483 3.133713 5.66992)
    max(T) = 302.8101 in cell 15246 at location (0.3794494 1.342424 2.952986)
    min(p_rgh) = -26.43748 in cell 59280 at location (3.481614 2.584372 6.965381)
    max(p_rgh) = 3.411036 in cell 48796 at location (2.800528 1.271874 5.391835)

Time = 43

DILUPBiCGStab:  Solving for Ux, Initial residual = 0.01064559, Final residual = 9.937889e-07, No Iterations 2
DILUPBiCGStab:  Solving for Uy, Initial residual = 0.008359107, Final residual = 5.868385e-07, No Iterations 2
DILUPBiCGStab:  Solving for Uz, Initial residual = 0.006728387, Final residual = 9.256912e-07, No Iterations 2
DILUPBiCGStab:  Solving for e, Initial residual = 0.009553207, Final residual = 6.341495e-07, No Iterations 2
GAMG:  Solving for p_rgh, Initial residual = 0.02634482, Final residual = 0.0001312239, No Iterations 3
GAMG:  Solving for p_rgh, Initial residual = 0.0008751098, Final residual = 6.942801e-06, No Iterations 7
GAMG:  Solving for p_rgh, Initial residual = 8.743217e-05, Final residual = 8.177779e-07, No Iterations 4
time step continuity errors : sum local = 3.88355e-07, global = -1.210357e-08, cumulative = 2.278036e-06
DILUPBiCGStab:  Solving for epsilon, Initial residual = 0.01006434, Final residual = 8.455851e-06, No Iterations 1
DILUPBiCGStab:  Solving for k, Initial residual = 0.01376697, Final residual = 1.335915e-05, No Iterations 1
ExecutionTime = 146.12 s  ClockTime = 146 s

fieldMinMax fieldMinMax1 write:
    min(mag(U)) = 0 in cell 775 at location (0.4493906 0.09856304 1.75)
    max(mag(U)) = 6.236314 in cell 58713 at location (3.146205 2.581093 6.967362)
    min(T) = 291.4388 in cell 56086 at location (3.941483 3.133713 5.66992)
    max(T) = 302.8101 in cell 15246 at location (0.3794494 1.342424 2.952986)
    min(p_rgh) = -26.48076 in cell 59280 at location (3.481614 2.584372 6.965381)
    max(p_rgh) = 3.455688 in cell 48796 at location (2.800528 1.271874 5.391835)

Time = 44

DILUPBiCGStab:  Solving for Ux, Initial residual = 0.01059503, Final residual = 9.954423e-07, No Iterations 2
DILUPBiCGStab:  Solving for Uy, Initial residual = 0.008387142, Final residual = 6.037346e-07, No Iterations 2
DILUPBiCGStab:  Solving for Uz, Initial residual = 0.006717864, Final residual = 1.080939e-06, No Iterations 2
DILUPBiCGStab:  Solving for e, Initial residual = 0.009439961, Final residual = 6.297344e-07, No Iterations 2
GAMG:  Solving for p_rgh, Initial residual = 0.02585888, Final residual = 0.0001283286, No Iterations 3
GAMG:  Solving for p_rgh, Initial residual = 0.0008513601, Final residual = 6.961957e-06, No Iterations 7
GAMG:  Solving for p_rgh, Initial residual = 8.443521e-05, Final residual = 6.498833e-07, No Iterations 5
time step continuity errors : sum local = 3.11938e-07, global = 5.594916e-09, cumulative = 2.283631e-06
DILUPBiCGStab:  Solving for epsilon, Initial residual = 0.01011435, Final residual = 9.235516e-06, No Iterations 1
DILUPBiCGStab:  Solving for k, Initial residual = 0.01409107, Final residual = 1.338951e-05, No Iterations 1
ExecutionTime = 149.69 s  ClockTime = 150 s

fieldMinMax fieldMinMax1 write:
    min(mag(U)) = 0 in cell 775 at location (0.4493906 0.09856304 1.75)
    max(mag(U)) = 6.290032 in cell 58713 at location (3.146205 2.581093 6.967362)
    min(T) = 291.4399 in cell 56086 at location (3.941483 3.133713 5.66992)
    max(T) = 302.8101 in cell 15246 at location (0.3794494 1.342424 2.952986)
    min(p_rgh) = -26.53282 in cell 59280 at location (3.481614 2.584372 6.965381)
    max(p_rgh) = 3.576876 in cell 48796 at location (2.800528 1.271874 5.391835)

Time = 45

DILUPBiCGStab:  Solving for Ux, Initial residual = 0.01054569, Final residual = 9.847653e-07, No Iterations 2
DILUPBiCGStab:  Solving for Uy, Initial residual = 0.008398276, Final residual = 6.268994e-07, No Iterations 2
DILUPBiCGStab:  Solving for Uz, Initial residual = 0.006711722, Final residual = 1.304671e-06, No Iterations 2
DILUPBiCGStab:  Solving for e, Initial residual = 0.009332533, Final residual = 6.265396e-07, No Iterations 2
GAMG:  Solving for p_rgh, Initial residual = 0.02545165, Final residual = 0.0001262584, No Iterations 3
GAMG:  Solving for p_rgh, Initial residual = 0.0008240332, Final residual = 7.602304e-06, No Iterations 7
GAMG:  Solving for p_rgh, Initial residual = 8.03561e-05, Final residual = 6.988388e-07, No Iterations 7
time step continuity errors : sum local = 3.389512e-07, global = -9.651989e-09, cumulative = 2.273979e-06
DILUPBiCGStab:  Solving for epsilon, Initial residual = 0.01036717, Final residual = 9.586972e-06, No Iterations 1
DILUPBiCGStab:  Solving for k, Initial residual = 0.01435303, Final residual = 1.323058e-05, No Iterations 1
ExecutionTime = 153.47 s  ClockTime = 154 s

fieldMinMax fieldMinMax1 write:
    min(mag(U)) = 0 in cell 775 at location (0.4493906 0.09856304 1.75)
    max(mag(U)) = 6.346357 in cell 58713 at location (3.146205 2.581093 6.967362)
    min(T) = 291.4411 in cell 56766 at location (4.079784 3.133729 5.669934)
    max(T) = 302.8101 in cell 15246 at location (0.3794494 1.342424 2.952986)
    min(p_rgh) = -26.5948 in cell 59280 at location (3.481614 2.584372 6.965381)
    max(p_rgh) = 3.753197 in cell 48796 at location (2.800528 1.271874 5.391835)

Time = 46

DILUPBiCGStab:  Solving for Ux, Initial residual = 0.01049516, Final residual = 9.590378e-07, No Iterations 2
DILUPBiCGStab:  Solving for Uy, Initial residual = 0.008379949, Final residual = 6.570146e-07, No Iterations 2
DILUPBiCGStab:  Solving for Uz, Initial residual = 0.006689562, Final residual = 1.6643e-06, No Iterations 2
DILUPBiCGStab:  Solving for e, Initial residual = 0.009228677, Final residual = 6.248856e-07, No Iterations 2
GAMG:  Solving for p_rgh, Initial residual = 0.02515936, Final residual = 0.0001243049, No Iterations 3
GAMG:  Solving for p_rgh, Initial residual = 0.0008113925, Final residual = 7.576615e-06, No Iterations 7
GAMG:  Solving for p_rgh, Initial residual = 7.946528e-05, Final residual = 6.909101e-07, No Iterations 7
time step continuity errors : sum local = 3.385915e-07, global = -1.012028e-08, cumulative = 2.263859e-06
DILUPBiCGStab:  Solving for epsilon, Initial residual = 0.01052252, Final residual = 9.549267e-06, No Iterations 1
DILUPBiCGStab:  Solving for k, Initial residual = 0.01460415, Final residual = 1.301736e-05, No Iterations 1
ExecutionTime = 157.29 s  ClockTime = 157 s

fieldMinMax fieldMinMax1 write:
    min(mag(U)) = 0 in cell 775 at location (0.4493906 0.09856304 1.75)
    max(mag(U)) = 6.40591 in cell 58713 at location (3.146205 2.581093 6.967362)
    min(T) = 291.4423 in cell 56775 at location (3.941476 3.133675 5.809939)
    max(T) = 302.8101 in cell 15246 at location (0.3794494 1.342424 2.952986)
    min(p_rgh) = -26.66681 in cell 59280 at location (3.481614 2.584372 6.965381)
    max(p_rgh) = 3.990785 in cell 48796 at location (2.800528 1.271874 5.391835)

Time = 47

DILUPBiCGStab:  Solving for Ux, Initial residual = 0.01044678, Final residual = 9.272987e-07, No Iterations 2
DILUPBiCGStab:  Solving for Uy, Initial residual = 0.008350188, Final residual = 6.754466e-07, No Iterations 2
DILUPBiCGStab:  Solving for Uz, Initial residual = 0.006666411, Final residual = 2.312103e-06, No Iterations 2
DILUPBiCGStab:  Solving for e, Initial residual = 0.009128469, Final residual = 6.244056e-07, No Iterations 2
GAMG:  Solving for p_rgh, Initial residual = 0.02482578, Final residual = 0.0001232537, No Iterations 3
GAMG:  Solving for p_rgh, Initial residual = 0.0007974373, Final residual = 7.463306e-06, No Iterations 6
GAMG:  Solving for p_rgh, Initial residual = 7.769408e-05, Final residual = 6.894689e-07, No Iterations 7
time step continuity errors : sum local = 3.414556e-07, global = -1.04297e-08, cumulative = 2.253429e-06
DILUPBiCGStab:  Solving for epsilon, Initial residual = 0.01086559, Final residual = 9.210193e-06, No Iterations 1
DILUPBiCGStab:  Solving for k, Initial residual = 0.01482568, Final residual = 1.288092e-05, No Iterations 1
ExecutionTime = 160.96 s  ClockTime = 161 s

fieldMinMax fieldMinMax1 write:
    min(mag(U)) = 0 in cell 775 at location (0.4493906 0.09856304 1.75)
    max(mag(U)) = 6.469361 in cell 58713 at location (3.146205 2.581093 6.967362)
    min(T) = 291.4436 in cell 57354 at location (4.079781 3.133689 5.809955)
    max(T) = 302.8101 in cell 15246 at location (0.3794494 1.342424 2.952986)
    min(p_rgh) = -26.74908 in cell 59280 at location (3.481614 2.584372 6.965381)
    max(p_rgh) = 4.176412 in cell 48796 at location (2.800528 1.271874 5.391835)

Time = 48

DILUPBiCGStab:  Solving for Ux, Initial residual = 0.01041306, Final residual = 8.973857e-07, No Iterations 2
DILUPBiCGStab:  Solving for Uy, Initial residual = 0.008320156, Final residual = 6.900009e-07, No Iterations 2
DILUPBiCGStab:  Solving for Uz, Initial residual = 0.006642569, Final residual = 4.016646e-06, No Iterations 2
DILUPBiCGStab:  Solving for e, Initial residual = 0.009027714, Final residual = 6.248623e-07, No Iterations 2
[...]
    max(p_rgh) = 32.27992 in cell 57958 at location (2.800529 2.55 6.968117)

Time = 989

DILUPBiCGStab:  Solving for Ux, Initial residual = 0.0001595921, Final residual = 1.540364e-08, No Iterations 2
DILUPBiCGStab:  Solving for Uy, Initial residual = 0.0001522827, Final residual = 1.436463e-08, No Iterations 2
DILUPBiCGStab:  Solving for Uz, Initial residual = 8.536121e-05, Final residual = 9.213799e-09, No Iterations 2
DILUPBiCGStab:  Solving for e, Initial residual = 6.759151e-05, Final residual = 6.402591e-09, No Iterations 2
GAMG:  Solving for p_rgh, Initial residual = 0.0007585738, Final residual = 3.387973e-06, No Iterations 3
GAMG:  Solving for p_rgh, Initial residual = 7.447544e-05, Final residual = 4.519686e-07, No Iterations 3
GAMG:  Solving for p_rgh, Initial residual = 2.326387e-05, Final residual = 1.319963e-07, No Iterations 3
time step continuity errors : sum local = 8.095096e-08, global = 5.427844e-10, cumulative = 2.105039e-06
DILUPBiCGStab:  Solving for epsilon, Initial residual = 3.378174e-05, Final residual = 9.298008e-09, No Iterations 1
DILUPBiCGStab:  Solving for k, Initial residual = 6.977085e-05, Final residual = 3.053186e-09, No Iterations 2
ExecutionTime = 3032.9 s  ClockTime = 3035 s

fieldMinMax fieldMinMax1 write:
    min(mag(U)) = 0 in cell 775 at location (0.4493906 0.09856304 1.75)
    max(mag(U)) = 9.718642 in cell 7744 at location (1.210107 2.581088 0.03264757)
    min(T) = 291.448 in cell 48826 at location (2.731392 1.203127 5.391831)
    max(T) = 302.8101 in cell 15246 at location (0.3794494 1.342424 2.952986)
    min(p_rgh) = -31.55561 in cell 52987 at location (2.731338 2.586277 6.52692)
    max(p_rgh) = 32.27394 in cell 57958 at location (2.800529 2.55 6.968117)

Time = 990

DILUPBiCGStab:  Solving for Ux, Initial residual = 0.0001583563, Final residual = 1.547092e-08, No Iterations 2
DILUPBiCGStab:  Solving for Uy, Initial residual = 0.0001504667, Final residual = 1.496984e-08, No Iterations 2
DILUPBiCGStab:  Solving for Uz, Initial residual = 8.452986e-05, Final residual = 8.999559e-09, No Iterations 2
DILUPBiCGStab:  Solving for e, Initial residual = 6.761613e-05, Final residual = 6.414414e-09, No Iterations 2
GAMG:  Solving for p_rgh, Initial residual = 0.0007425455, Final residual = 2.955004e-06, No Iterations 3
GAMG:  Solving for p_rgh, Initial residual = 8.406849e-05, Final residual = 4.286059e-07, No Iterations 3
GAMG:  Solving for p_rgh, Initial residual = 2.801362e-05, Final residual = 1.312569e-07, No Iterations 3
time step continuity errors : sum local = 8.04952e-08, global = 7.162816e-10, cumulative = 2.105756e-06
DILUPBiCGStab:  Solving for epsilon, Initial residual = 3.366785e-05, Final residual = 9.201032e-09, No Iterations 1
DILUPBiCGStab:  Solving for k, Initial residual = 6.951204e-05, Final residual = 3.031952e-09, No Iterations 2
ExecutionTime = 3035.82 s  ClockTime = 3038 s

fieldMinMax fieldMinMax1 write:
    min(mag(U)) = 0 in cell 775 at location (0.4493906 0.09856304 1.75)
    max(mag(U)) = 9.718581 in cell 7744 at location (1.210107 2.581088 0.03264757)
    min(T) = 291.448 in cell 48826 at location (2.731392 1.203127 5.391831)
    max(T) = 302.8101 in cell 15246 at location (0.3794494 1.342424 2.952986)
    min(p_rgh) = -31.55625 in cell 52987 at location (2.731338 2.586277 6.52692)
    max(p_rgh) = 32.26706 in cell 57958 at location (2.800529 2.55 6.968117)

Time = 991

DILUPBiCGStab:  Solving for Ux, Initial residual = 0.0001582401, Final residual = 1.533593e-08, No Iterations 2
DILUPBiCGStab:  Solving for Uy, Initial residual = 0.0001504272, Final residual = 1.476553e-08, No Iterations 2
DILUPBiCGStab:  Solving for Uz, Initial residual = 8.439284e-05, Final residual = 8.718909e-09, No Iterations 2
DILUPBiCGStab:  Solving for e, Initial residual = 6.763359e-05, Final residual = 6.421467e-09, No Iterations 2
GAMG:  Solving for p_rgh, Initial residual = 0.0007200613, Final residual = 3.586865e-06, No Iterations 3
GAMG:  Solving for p_rgh, Initial residual = 6.904503e-05, Final residual = 4.890558e-07, No Iterations 3
GAMG:  Solving for p_rgh, Initial residual = 2.289351e-05, Final residual = 1.462286e-07, No Iterations 3
time step continuity errors : sum local = 8.967629e-08, global = -1.143621e-09, cumulative = 2.104612e-06
DILUPBiCGStab:  Solving for epsilon, Initial residual = 3.357983e-05, Final residual = 9.132293e-09, No Iterations 1
DILUPBiCGStab:  Solving for k, Initial residual = 6.927923e-05, Final residual = 3.022223e-09, No Iterations 2
ExecutionTime = 3038.75 s  ClockTime = 3041 s

fieldMinMax fieldMinMax1 write:
    min(mag(U)) = 0 in cell 775 at location (0.4493906 0.09856304 1.75)
    max(mag(U)) = 9.718513 in cell 7744 at location (1.210107 2.581088 0.03264757)
    min(T) = 291.448 in cell 48826 at location (2.731392 1.203127 5.391831)
    max(T) = 302.8101 in cell 15246 at location (0.3794494 1.342424 2.952986)
    min(p_rgh) = -31.55689 in cell 52987 at location (2.731338 2.586277 6.52692)
    max(p_rgh) = 32.25933 in cell 57958 at location (2.800529 2.55 6.968117)

Time = 992

DILUPBiCGStab:  Solving for Ux, Initial residual = 0.0001577531, Final residual = 1.529573e-08, No Iterations 2
DILUPBiCGStab:  Solving for Uy, Initial residual = 0.0001503002, Final residual = 1.493369e-08, No Iterations 2
DILUPBiCGStab:  Solving for Uz, Initial residual = 8.417352e-05, Final residual = 8.683022e-09, No Iterations 2
DILUPBiCGStab:  Solving for e, Initial residual = 6.759492e-05, Final residual = 6.417778e-09, No Iterations 2
GAMG:  Solving for p_rgh, Initial residual = 0.0007038029, Final residual = 3.100572e-06, No Iterations 3
GAMG:  Solving for p_rgh, Initial residual = 7.420208e-05, Final residual = 4.523182e-07, No Iterations 3
GAMG:  Solving for p_rgh, Initial residual = 2.64573e-05, Final residual = 1.43774e-07, No Iterations 3
time step continuity errors : sum local = 8.81689e-08, global = 5.448556e-10, cumulative = 2.105157e-06
DILUPBiCGStab:  Solving for epsilon, Initial residual = 3.351922e-05, Final residual = 9.089817e-09, No Iterations 1
DILUPBiCGStab:  Solving for k, Initial residual = 6.90328e-05, Final residual = 3.00135e-09, No Iterations 2
ExecutionTime = 3041.67 s  ClockTime = 3044 s

fieldMinMax fieldMinMax1 write:
    min(mag(U)) = 0 in cell 775 at location (0.4493906 0.09856304 1.75)
    max(mag(U)) = 9.718438 in cell 7744 at location (1.210107 2.581088 0.03264757)
    min(T) = 291.448 in cell 48826 at location (2.731392 1.203127 5.391831)
    max(T) = 302.8101 in cell 15246 at location (0.3794494 1.342424 2.952986)
    min(p_rgh) = -31.55754 in cell 52987 at location (2.731338 2.586277 6.52692)
    max(p_rgh) = 32.25076 in cell 57958 at location (2.800529 2.55 6.968117)

Time = 993

DILUPBiCGStab:  Solving for Ux, Initial residual = 0.0001568983, Final residual = 1.537306e-08, No Iterations 2
DILUPBiCGStab:  Solving for Uy, Initial residual = 0.0001491731, Final residual = 1.441822e-08, No Iterations 2
DILUPBiCGStab:  Solving for Uz, Initial residual = 8.421442e-05, Final residual = 8.644279e-09, No Iterations 2
DILUPBiCGStab:  Solving for e, Initial residual = 6.7546e-05, Final residual = 6.415405e-09, No Iterations 2
GAMG:  Solving for p_rgh, Initial residual = 0.0007418832, Final residual = 3.458297e-06, No Iterations 3
GAMG:  Solving for p_rgh, Initial residual = 6.696363e-05, Final residual = 4.298968e-07, No Iterations 3
GAMG:  Solving for p_rgh, Initial residual = 2.147433e-05, Final residual = 1.071757e-07, No Iterations 3
time step continuity errors : sum local = 6.572538e-08, global = 5.536065e-11, cumulative = 2.105212e-06
DILUPBiCGStab:  Solving for epsilon, Initial residual = 3.346833e-05, Final residual = 9.071947e-09, No Iterations 1
DILUPBiCGStab:  Solving for k, Initial residual = 6.88114e-05, Final residual = 2.998336e-09, No Iterations 2
ExecutionTime = 3044.66 s  ClockTime = 3047 s

fieldMinMax fieldMinMax1 write:
    min(mag(U)) = 0 in cell 775 at location (0.4493906 0.09856304 1.75)
    max(mag(U)) = 9.718358 in cell 7744 at location (1.210107 2.581088 0.03264757)
    min(T) = 291.448 in cell 48826 at location (2.731392 1.203127 5.391831)
    max(T) = 302.8101 in cell 15246 at location (0.3794494 1.342424 2.952986)
    min(p_rgh) = -31.55821 in cell 52987 at location (2.731338 2.586277 6.52692)
    max(p_rgh) = 32.24136 in cell 57958 at location (2.800529 2.55 6.968117)

Time = 994

DILUPBiCGStab:  Solving for Ux, Initial residual = 0.0001575537, Final residual = 1.554358e-08, No Iterations 2
DILUPBiCGStab:  Solving for Uy, Initial residual = 0.0001509143, Final residual = 1.435843e-08, No Iterations 2
DILUPBiCGStab:  Solving for Uz, Initial residual = 8.45826e-05, Final residual = 8.833475e-09, No Iterations 2
DILUPBiCGStab:  Solving for e, Initial residual = 6.745769e-05, Final residual = 6.401333e-09, No Iterations 2
GAMG:  Solving for p_rgh, Initial residual = 0.0007161525, Final residual = 3.655735e-06, No Iterations 3
GAMG:  Solving for p_rgh, Initial residual = 7.813939e-05, Final residual = 4.695869e-07, No Iterations 3
GAMG:  Solving for p_rgh, Initial residual = 2.935918e-05, Final residual = 1.529141e-07, No Iterations 3
time step continuity errors : sum local = 9.377023e-08, global = 8.437072e-10, cumulative = 2.106056e-06
DILUPBiCGStab:  Solving for epsilon, Initial residual = 3.341631e-05, Final residual = 9.068056e-09, No Iterations 1
DILUPBiCGStab:  Solving for k, Initial residual = 6.863713e-05, Final residual = 3.003383e-09, No Iterations 2
ExecutionTime = 3047.57 s  ClockTime = 3050 s

fieldMinMax fieldMinMax1 write:
    min(mag(U)) = 0 in cell 775 at location (0.4493906 0.09856304 1.75)
    max(mag(U)) = 9.718271 in cell 7744 at location (1.210107 2.581088 0.03264757)
    min(T) = 291.448 in cell 48826 at location (2.731392 1.203127 5.391831)
    max(T) = 302.8101 in cell 15246 at location (0.3794494 1.342424 2.952986)
    min(p_rgh) = -31.55889 in cell 52987 at location (2.731338 2.586277 6.52692)
    max(p_rgh) = 32.23117 in cell 57958 at location (2.800529 2.55 6.968117)

Time = 995

DILUPBiCGStab:  Solving for Ux, Initial residual = 0.0001562828, Final residual = 1.540523e-08, No Iterations 2
DILUPBiCGStab:  Solving for Uy, Initial residual = 0.0001493491, Final residual = 1.448497e-08, No Iterations 2
DILUPBiCGStab:  Solving for Uz, Initial residual = 8.475741e-05, Final residual = 8.873362e-09, No Iterations 2
DILUPBiCGStab:  Solving for e, Initial residual = 6.737632e-05, Final residual = 6.379503e-09, No Iterations 2
GAMG:  Solving for p_rgh, Initial residual = 0.0007059815, Final residual = 3.265942e-06, No Iterations 3
GAMG:  Solving for p_rgh, Initial residual = 6.359718e-05, Final residual = 4.425184e-07, No Iterations 3
GAMG:  Solving for p_rgh, Initial residual = 2.119944e-05, Final residual = 1.196908e-07, No Iterations 3
time step continuity errors : sum local = 7.339705e-08, global = 4.438586e-10, cumulative = 2.1065e-06
DILUPBiCGStab:  Solving for epsilon, Initial residual = 3.342662e-05, Final residual = 9.08463e-09, No Iterations 1
DILUPBiCGStab:  Solving for k, Initial residual = 6.837845e-05, Final residual = 3.008924e-09, No Iterations 2
ExecutionTime = 3050.51 s  ClockTime = 3053 s

fieldMinMax fieldMinMax1 write:
    min(mag(U)) = 0 in cell 775 at location (0.4493906 0.09856304 1.75)
    max(mag(U)) = 9.718179 in cell 7744 at location (1.210107 2.581088 0.03264757)
    min(T) = 291.448 in cell 48826 at location (2.731392 1.203127 5.391831)
    max(T) = 302.8101 in cell 15246 at location (0.3794494 1.342424 2.952986)
    min(p_rgh) = -31.55957 in cell 52987 at location (2.731338 2.586277 6.52692)
    max(p_rgh) = 32.22023 in cell 57958 at location (2.800529 2.55 6.968117)

Time = 996

DILUPBiCGStab:  Solving for Ux, Initial residual = 0.0001552139, Final residual = 1.53529e-08, No Iterations 2
DILUPBiCGStab:  Solving for Uy, Initial residual = 0.0001476803, Final residual = 1.438833e-08, No Iterations 2
DILUPBiCGStab:  Solving for Uz, Initial residual = 8.394809e-05, Final residual = 8.628476e-09, No Iterations 2
DILUPBiCGStab:  Solving for e, Initial residual = 6.723254e-05, Final residual = 6.352568e-09, No Iterations 2
GAMG:  Solving for p_rgh, Initial residual = 0.0007934622, Final residual = 3.291376e-06, No Iterations 3
GAMG:  Solving for p_rgh, Initial residual = 9.438404e-05, Final residual = 4.375117e-07, No Iterations 3
GAMG:  Solving for p_rgh, Initial residual = 3.033742e-05, Final residual = 1.22785e-07, No Iterations 3
time step continuity errors : sum local = 7.529212e-08, global = 9.362855e-10, cumulative = 2.107436e-06
DILUPBiCGStab:  Solving for epsilon, Initial residual = 3.348396e-05, Final residual = 9.1244e-09, No Iterations 1
DILUPBiCGStab:  Solving for k, Initial residual = 6.825702e-05, Final residual = 3.046765e-09, No Iterations 2
ExecutionTime = 3053.42 s  ClockTime = 3056 s

fieldMinMax fieldMinMax1 write:
    min(mag(U)) = 0 in cell 775 at location (0.4493906 0.09856304 1.75)
    max(mag(U)) = 9.718081 in cell 7744 at location (1.210107 2.581088 0.03264757)
    min(T) = 291.448 in cell 48826 at location (2.731392 1.203127 5.391831)
    max(T) = 302.8101 in cell 15246 at location (0.3794494 1.342424 2.952986)
    min(p_rgh) = -31.56026 in cell 52987 at location (2.731338 2.586277 6.52692)
    max(p_rgh) = 32.20855 in cell 57958 at location (2.800529 2.55 6.968117)

Time = 997

DILUPBiCGStab:  Solving for Ux, Initial residual = 0.0001554365, Final residual = 1.544184e-08, No Iterations 2
DILUPBiCGStab:  Solving for Uy, Initial residual = 0.0001491733, Final residual = 1.377933e-08, No Iterations 2
DILUPBiCGStab:  Solving for Uz, Initial residual = 8.494101e-05, Final residual = 8.97975e-09, No Iterations 2
DILUPBiCGStab:  Solving for e, Initial residual = 6.709842e-05, Final residual = 6.342686e-09, No Iterations 2
GAMG:  Solving for p_rgh, Initial residual = 0.0007421875, Final residual = 3.662609e-06, No Iterations 3
GAMG:  Solving for p_rgh, Initial residual = 7.639234e-05, Final residual = 4.746897e-07, No Iterations 3
GAMG:  Solving for p_rgh, Initial residual = 2.499272e-05, Final residual = 1.336792e-07, No Iterations 3
time step continuity errors : sum local = 8.197206e-08, global = 3.868898e-10, cumulative = 2.107823e-06
DILUPBiCGStab:  Solving for epsilon, Initial residual = 3.358634e-05, Final residual = 9.117369e-09, No Iterations 1
DILUPBiCGStab:  Solving for k, Initial residual = 6.795821e-05, Final residual = 3.021004e-09, No Iterations 2
ExecutionTime = 3056.35 s  ClockTime = 3059 s

fieldMinMax fieldMinMax1 write:
    min(mag(U)) = 0 in cell 775 at location (0.4493906 0.09856304 1.75)
    max(mag(U)) = 9.717977 in cell 7744 at location (1.210107 2.581088 0.03264757)
    min(T) = 291.448 in cell 48826 at location (2.731392 1.203127 5.391831)
    max(T) = 302.8101 in cell 15246 at location (0.3794494 1.342424 2.952986)
    min(p_rgh) = -31.56097 in cell 52987 at location (2.731338 2.586277 6.52692)
    max(p_rgh) = 32.19627 in cell 57958 at location (2.800529 2.55 6.968117)

Time = 998

DILUPBiCGStab:  Solving for Ux, Initial residual = 0.0001536334, Final residual = 1.524184e-08, No Iterations 2
DILUPBiCGStab:  Solving for Uy, Initial residual = 0.0001476464, Final residual = 1.431423e-08, No Iterations 2
DILUPBiCGStab:  Solving for Uz, Initial residual = 8.430257e-05, Final residual = 8.793311e-09, No Iterations 2
DILUPBiCGStab:  Solving for e, Initial residual = 6.690125e-05, Final residual = 6.316692e-09, No Iterations 2
GAMG:  Solving for p_rgh, Initial residual = 0.0007097175, Final residual = 2.941254e-06, No Iterations 3
GAMG:  Solving for p_rgh, Initial residual = 8.005494e-05, Final residual = 4.441596e-07, No Iterations 3
GAMG:  Solving for p_rgh, Initial residual = 2.820594e-05, Final residual = 1.530957e-07, No Iterations 3
time step continuity errors : sum local = 9.387556e-08, global = -1.820492e-09, cumulative = 2.106002e-06
DILUPBiCGStab:  Solving for epsilon, Initial residual = 3.370144e-05, Final residual = 9.123066e-09, No Iterations 1
DILUPBiCGStab:  Solving for k, Initial residual = 6.767713e-05, Final residual = 3.018223e-09, No Iterations 2
ExecutionTime = 3059.26 s  ClockTime = 3061 s

fieldMinMax fieldMinMax1 write:
    min(mag(U)) = 0 in cell 775 at location (0.4493906 0.09856304 1.75)
    max(mag(U)) = 9.717869 in cell 7744 at location (1.210107 2.581088 0.03264757)
    min(T) = 291.448 in cell 48826 at location (2.731392 1.203127 5.391831)
    max(T) = 302.8101 in cell 15246 at location (0.3794494 1.342424 2.952986)
    min(p_rgh) = -31.5617 in cell 52987 at location (2.731338 2.586277 6.52692)
    max(p_rgh) = 32.18325 in cell 57958 at location (2.800529 2.55 6.968117)

Time = 999

DILUPBiCGStab:  Solving for Ux, Initial residual = 0.0001524318, Final residual = 1.521814e-08, No Iterations 2
DILUPBiCGStab:  Solving for Uy, Initial residual = 0.0001459281, Final residual = 1.381012e-08, No Iterations 2
DILUPBiCGStab:  Solving for Uz, Initial residual = 8.38088e-05, Final residual = 8.486222e-09, No Iterations 2
DILUPBiCGStab:  Solving for e, Initial residual = 6.669886e-05, Final residual = 6.291339e-09, No Iterations 2
GAMG:  Solving for p_rgh, Initial residual = 0.0007014627, Final residual = 3.155639e-06, No Iterations 3
GAMG:  Solving for p_rgh, Initial residual = 6.998744e-05, Final residual = 4.665794e-07, No Iterations 3
GAMG:  Solving for p_rgh, Initial residual = 2.111571e-05, Final residual = 1.118064e-07, No Iterations 3
time step continuity errors : sum local = 6.855776e-08, global = 5.47052e-11, cumulative = 2.106057e-06
DILUPBiCGStab:  Solving for epsilon, Initial residual = 3.381411e-05, Final residual = 9.129256e-09, No Iterations 1
DILUPBiCGStab:  Solving for k, Initial residual = 6.743405e-05, Final residual = 3.030653e-09, No Iterations 2
ExecutionTime = 3062.18 s  ClockTime = 3064 s

fieldMinMax fieldMinMax1 write:
    min(mag(U)) = 0 in cell 775 at location (0.4493906 0.09856304 1.75)
    max(mag(U)) = 9.717755 in cell 7744 at location (1.210107 2.581088 0.03264757)
    min(T) = 291.448 in cell 48826 at location (2.731392 1.203127 5.391831)
    max(T) = 302.8101 in cell 15246 at location (0.3794494 1.342424 2.952986)
    min(p_rgh) = -31.56266 in cell 52987 at location (2.731338 2.586277 6.52692)
    max(p_rgh) = 32.16937 in cell 57958 at location (2.800529 2.55 6.968117)

Time = 1000

DILUPBiCGStab:  Solving for Ux, Initial residual = 0.0001521655, Final residual = 1.533193e-08, No Iterations 2
DILUPBiCGStab:  Solving for Uy, Initial residual = 0.0001460441, Final residual = 1.415244e-08, No Iterations 2
DILUPBiCGStab:  Solving for Uz, Initial residual = 8.358206e-05, Final residual = 8.520704e-09, No Iterations 2
DILUPBiCGStab:  Solving for e, Initial residual = 6.645365e-05, Final residual = 6.267391e-09, No Iterations 2
GAMG:  Solving for p_rgh, Initial residual = 0.0006806743, Final residual = 3.305757e-06, No Iterations 3
GAMG:  Solving for p_rgh, Initial residual = 7.589515e-05, Final residual = 4.799008e-07, No Iterations 3
GAMG:  Solving for p_rgh, Initial residual = 2.825816e-05, Final residual = 1.492664e-07, No Iterations 3
time step continuity errors : sum local = 9.152353e-08, global = 6.975237e-10, cumulative = 2.106755e-06
DILUPBiCGStab:  Solving for epsilon, Initial residual = 3.391461e-05, Final residual = 9.139646e-09, No Iterations 1
DILUPBiCGStab:  Solving for k, Initial residual = 6.715981e-05, Final residual = 3.034146e-09, No Iterations 2
ExecutionTime = 3068.3 s  ClockTime = 3071 s

fieldMinMax fieldMinMax1 write:
    min(mag(U)) = 0 in cell 775 at location (0.4493906 0.09856304 1.75)
    max(mag(U)) = 9.717636 in cell 7744 at location (1.210107 2.581088 0.03264757)
    min(T) = 291.448 in cell 48826 at location (2.731392 1.203127 5.391831)
    max(T) = 302.8101 in cell 15246 at location (0.3794494 1.342424 2.952986)
    min(p_rgh) = -31.56329 in cell 52987 at location (2.731338 2.586277 6.52692)
    max(p_rgh) = 32.15522 in cell 57958 at location (2.800529 2.55 6.968117)

End

