/*---------------------------------------------------------------------------*\
| =========                 |                                                 |
| \\      /  F ield         | OpenFOAM: The Open Source CFD Toolbox           |
|  \\    /   O peration     | Version:  2012                                  |
|   \\  /    A nd           | Website:  www.openfoam.com                      |
|    \\/     M anipulation  |                                                 |
\*---------------------------------------------------------------------------*/
Build  : _d5c32f18-20260127 OPENFOAM=2012 patch=260127
Arch   : "LSB;label=32;scalar=64"
Exec   : buoyantBoussinesqSimpleFoam
Date   : Jun 30 2026
Time   : 19:07:50
Host   : ip-172-31-34-251
PID    : 38858
I/O    : uncollated
Case   : /workspace/case
nProcs : 1
trapFpe: Floating point exception trapping enabled (FOAM_SIGFPE).
fileModificationChecking : Monitoring run-time modified files using timeStampMaster (fileModificationSkew 5, maxFileModificationPolls 20)
allowSystemOperations : Allowing user-supplied system call operations

// * * * * * * * * * * * * * * * * * * * * * * * * * * * * * * * * * * * * * //
Create time

Overriding DebugSwitches according to controlDict
    GAMGAgglomeration 1;

Overriding OptimisationSwitches according to controlDict
    fileHandler (unregistered)
    maxThreadFileBufferSize 1e+09;

    maxMasterFileBufferSize 1e+09;

Overriding fileHandler to collated
I/O    : collated (maxThreadFileBufferSize 1e+09)
         Threading activated since maxThreadFileBufferSize > 0.
         Requires large enough buffer to collect all data or thread support 
         enabled in MPI. If thread support cannot be enabled, deactivate
         threading by setting maxThreadFileBufferSize to 0 in
         OpenFOAM etc/controlDict
Create mesh for time = 0


SIMPLE: convergence criteria
    field p_rgh	 tolerance 1e-05
    field U	 tolerance 0.0001
    field T	 tolerance 0.0001
    field "(k|epsilon|omega)"	 tolerance 0.0001

Reading thermophysical properties

Reading field T

Reading field p_rgh

Reading field U

Reading/calculating face flux field phi

Selecting incompressible transport model Newtonian
Creating turbulence model

Selecting turbulence model type RAS
Selecting RAS turbulence model kEpsilon
(RNGkEpsilonCoeffs|kEpsilonCoeffs|kOmegaSSTCoeffs)
{
    Prt             0.85;
    Cmu             0.09;
    C1              1.44;
    C2              1.92;
    C3              0;
    sigmak          1;
    sigmaEps        1.3;
}

Reading field alphat


Reading g

Reading hRef
Calculating field g.h

No MRF models present

Radiation model not active: radiationProperties not found
Selecting radiationModel none
No finite volume options present

Starting time loop

surfaceFieldValue T_hot_crac1:
    operation     = areaAverage


surfaceFieldValue T_hot_crac2:
    operation     = areaAverage


surfaceFieldValue T_hot_crac3:
    operation     = areaAverage


surfaceFieldValue T_hot_crac4:
    operation     = areaAverage


surfaceFieldValue T_cold_crac1:
    operation     = areaAverage


surfaceFieldValue T_cold_crac2:
    operation     = areaAverage


surfaceFieldValue T_cold_crac3:
    operation     = areaAverage


surfaceFieldValue T_cold_crac4:
    operation     = areaAverage


surfaceFieldValue T_h_rack1:
    operation     = areaAverage


surfaceFieldValue T_h_rack2:
    operation     = areaAverage


surfaceFieldValue T_h_rack3:
    operation     = areaAverage


surfaceFieldValue T_h_rack4:
    operation     = areaAverage


surfaceFieldValue T_h_rack5:
    operation     = areaAverage


surfaceFieldValue T_h_rack6:
    operation     = areaAverage


surfaceFieldValue T_h_rack7:
    operation     = areaAverage


surfaceFieldValue T_h_rack8:
    operation     = areaAverage


surfaceFieldValue T_h_rack9:
    operation     = areaAverage


surfaceFieldValue T_h_rack10:
    operation     = areaAverage


surfaceFieldValue T_c_rack1:
    operation     = areaAverage


surfaceFieldValue T_c_rack2:
    operation     = areaAverage


surfaceFieldValue T_c_rack3:
    operation     = areaAverage


surfaceFieldValue T_c_rack4:
    operation     = areaAverage


surfaceFieldValue T_c_rack5:
    operation     = areaAverage


surfaceFieldValue T_c_rack6:
    operation     = areaAverage


surfaceFieldValue T_c_rack7:
    operation     = areaAverage


surfaceFieldValue T_c_rack8:
    operation     = areaAverage


surfaceFieldValue T_c_rack9:
    operation     = areaAverage


surfaceFieldValue T_c_rack10:
    operation     = areaAverage


surfaceFieldValue dm_c_crac1:
    operation     = sum


surfaceFieldValue dm_c_crac2:
    operation     = sum


surfaceFieldValue dm_c_crac3:
    operation     = sum


surfaceFieldValue dm_c_crac4:
    operation     = sum


surfaceFieldValue dm_h_crac1:
    operation     = sum


surfaceFieldValue dm_h_crac2:
    operation     = sum


surfaceFieldValue dm_h_crac3:
    operation     = sum


surfaceFieldValue dm_h_crac4:
    operation     = sum


surfaceFieldValue dm_hole:
    operation     = sum


surfaceFieldValue dm_h_rack1:
    operation     = sum


surfaceFieldValue dm_h_rack2:
    operation     = sum


surfaceFieldValue dm_h_rack3:
    operation     = sum


surfaceFieldValue dm_h_rack4:
    operation     = sum


surfaceFieldValue dm_h_rack5:
    operation     = sum


surfaceFieldValue dm_h_rack6:
    operation     = sum


surfaceFieldValue dm_h_rack7:
    operation     = sum


surfaceFieldValue dm_h_rack8:
    operation     = sum


surfaceFieldValue dm_h_rack9:
    operation     = sum


surfaceFieldValue dm_h_rack10:
    operation     = sum


surfaceFieldValue dm_c_rack1:
    operation     = sum


surfaceFieldValue dm_c_rack2:
    operation     = sum


surfaceFieldValue dm_c_rack3:
    operation     = sum


surfaceFieldValue dm_c_rack4:
    operation     = sum


surfaceFieldValue dm_c_rack5:
    operation     = sum


surfaceFieldValue dm_c_rack6:
    operation     = sum


surfaceFieldValue dm_c_rack7:
    operation     = sum


surfaceFieldValue dm_c_rack8:
    operation     = sum


surfaceFieldValue dm_c_rack9:
    operation     = sum


surfaceFieldValue dm_c_rack10:
    operation     = sum


turbulenceFields turbulenceFields1: storing fields:
    turbulenceProperties:nuEff
    turbulenceProperties:R
    turbulenceProperties:I
    turbulenceProperties:L
    turbulenceProperties:devReff

pressure staticPressure:
    Operating mode: static
    Not including hydrostatic effects

pressure totalPressure:
    Operating mode: total
    Not including hydrostatic effects

Time = 1

DILUPBiCGStab:  Solving for Ux, Initial residual = 1, Final residual = 6.710444e-05, No Iterations 2
DILUPBiCGStab:  Solving for Uy, Initial residual = 1, Final residual = 0.0001279814, No Iterations 2
DILUPBiCGStab:  Solving for Uz, Initial residual = 1, Final residual = 7.92205e-05, No Iterations 2
swak4Foam: Setting default mesh
swak4Foam: Allocating new repository for sampledGlobalVariables
DILUPBiCGStab:  Solving for T, Initial residual = 1, Final residual = 7.931047e-05, No Iterations 2
GAMGAgglomeration:
    local agglomerator     : algebraicPair
                              nCells       nFaces/nCells         nInterfaces    nIntFaces/nCells     profile
   Level  nProcs         avg     max         avg     max         avg     max         avg     max         avg
   -----  ------         ---     ---         ---     ---         ---     ---         ---     ---         ---
       0       1       61811   61811       2.931   2.931           0       0           0       0   5.022e+07
       1       1       30839   30839       3.613   3.613           0       0           0       0   2.096e+07
       2       1       15366   15366        4.45    4.45           0       0           0       0   7.178e+06
       3       1        7625    7625       5.299   5.299           0       0           0       0   2.654e+06
       4       1        3802    3802       5.887   5.887           0       0           0       0   8.978e+05
       5       1        1889    1889       6.281   6.281           0       0           0       0   3.029e+05
       6       1         940     940       6.494   6.494           0       0           0       0   9.621e+04
       7       1         468     468       6.468   6.468           0       0           0       0   3.089e+04
       8       1         232     232       6.341   6.341           0       0           0       0        9311
       9       1         114     114       5.921   5.921           0       0           0       0        2633
      10       1          56      56       5.214   5.214           0       0           0       0         726
      11       1          28      28       4.393   4.393           0       0           0       0         237
      12       1          14      14       3.357   3.357           0       0           0       0          64

GAMG:  Solving for p_rgh, Initial residual = 1, Final residual = 0.008742552, No Iterations 2
GAMG:  Solving for p_rgh, Initial residual = 0.01289096, Final residual = 9.439838e-05, No Iterations 7
GAMG:  Solving for p_rgh, Initial residual = 0.0012431, Final residual = 8.354497e-06, No Iterations 4
time step continuity errors : sum local = 0.0002104742, global = -3.404033e-06, cumulative = -3.404033e-06
DILUPBiCGStab:  Solving for epsilon, Initial residual = 0.1812771, Final residual = 7.806848e-06, No Iterations 2
DILUPBiCGStab:  Solving for k, Initial residual = 1, Final residual = 5.556329e-05, No Iterations 2
ExecutionTime = 0.62 s  ClockTime = 14 s

fieldMinMax fieldMinMax1 write:
    min(U) = (-0.1077145 -2.982282 -0.5195628) in cell 9075 at location (1.348429 2.649705 0.1746263)
    max(U) = (0.8191339 0.8327419 1.705174) in cell 37294 at location (0.653258 2.589768 6.46511)
    min(p_rgh) = -20.65989 in cell 7959 at location (1.210107 2.582136 0.1050219)
    max(p_rgh) = 5.180007 in cell 41304 at location (2.800535 1.134448 4.12)
    min(T) = 180.0077 in cell 20753 at location (0.0712444 0.0650032 3.012697)
    max(T) = 439.5901 in cell 61810 at location (6.433637 3.095703 6.926774)

Time = 2

DILUPBiCGStab:  Solving for Ux, Initial residual = 0.2212246, Final residual = 1.288121e-05, No Iterations 2
DILUPBiCGStab:  Solving for Uy, Initial residual = 0.1479863, Final residual = 8.684109e-06, No Iterations 2
DILUPBiCGStab:  Solving for Uz, Initial residual = 0.1913087, Final residual = 1.164811e-05, No Iterations 2
DILUPBiCGStab:  Solving for T, Initial residual = 0.1303657, Final residual = 7.124492e-06, No Iterations 2
GAMG:  Solving for p_rgh, Initial residual = 0.1643893, Final residual = 0.001503705, No Iterations 3
GAMG:  Solving for p_rgh, Initial residual = 0.005290545, Final residual = 4.696286e-05, No Iterations 11
GAMG:  Solving for p_rgh, Initial residual = 0.000511323, Final residual = 4.090244e-06, No Iterations 4
time step continuity errors : sum local = 5.772519e-05, global = -7.467734e-08, cumulative = -3.478711e-06
DILUPBiCGStab:  Solving for epsilon, Initial residual = 0.4493324, Final residual = 0.00038336, No Iterations 1
DILUPBiCGStab:  Solving for k, Initial residual = 0.563097, Final residual = 1.432725e-05, No Iterations 2
ExecutionTime = 0.94 s  ClockTime = 15 s

fieldMinMax fieldMinMax1 write:
    min(U) = (-0.2558068 -3.101889 -0.7855001) in cell 16523 at location (3.007879 2.650744 0.2452123)
    max(U) = (0.9139596 0.8478917 1.850804) in cell 37294 at location (0.653258 2.589768 6.46511)
    min(p_rgh) = -14.79724 in cell 54664 at location (2.869659 2.586539 6.540242)
    max(p_rgh) = 11.53403 in cell 6333 at location (1.211349 2.854235 0.0322704)
    min(T) = 197.7747 in cell 8381 at location (3.555482 0.07435312 0.081635)
    max(T) = 408.6162 in cell 61810 at location (6.433637 3.095703 6.926774)

Time = 3

DILUPBiCGStab:  Solving for Ux, Initial residual = 0.1325376, Final residual = 9.562763e-06, No Iterations 2
DILUPBiCGStab:  Solving for Uy, Initial residual = 0.09753469, Final residual = 4.858384e-06, No Iterations 2
DILUPBiCGStab:  Solving for Uz, Initial residual = 0.1043493, Final residual = 7.330632e-06, No Iterations 2
DILUPBiCGStab:  Solving for T, Initial residual = 0.09419905, Final residual = 5.051985e-06, No Iterations 2
GAMG:  Solving for p_rgh, Initial residual = 0.141031, Final residual = 0.001165427, No Iterations 3
GAMG:  Solving for p_rgh, Initial residual = 0.003833754, Final residual = 2.991834e-05, No Iterations 8
GAMG:  Solving for p_rgh, Initial residual = 0.0003072698, Final residual = 2.703732e-06, No Iterations 6
time step continuity errors : sum local = 2.895895e-05, global = 1.162704e-06, cumulative = -2.316007e-06
DILUPBiCGStab:  Solving for epsilon, Initial residual = 0.3711956, Final residual = 7.907934e-06, No Iterations 2
DILUPBiCGStab:  Solving for k, Initial residual = 0.3111381, Final residual = 7.972382e-06, No Iterations 2
ExecutionTime = 1.25 s  ClockTime = 16 s

fieldMinMax fieldMinMax1 write:
    min(U) = (-0.2401337 -3.03018 -0.7029647) in cell 16523 at location (3.007879 2.650744 0.2452123)
    max(U) = (0.9923401 0.7810057 1.859225) in cell 37294 at location (0.653258 2.589768 6.46511)
    min(p_rgh) = -27.14031 in cell 54664 at location (2.869659 2.586539 6.540242)
    max(p_rgh) = 5.277394 in cell 17931 at location (0.07439317 2.281576 4.690562)
    min(T) = 205.5884 in cell 8381 at location (3.555482 0.07435312 0.081635)
    max(T) = 393.3719 in cell 61810 at location (6.433637 3.095703 6.926774)

Time = 4

DILUPBiCGStab:  Solving for Ux, Initial residual = 0.07845234, Final residual = 5.77563e-06, No Iterations 2
DILUPBiCGStab:  Solving for Uy, Initial residual = 0.06110863, Final residual = 2.733834e-06, No Iterations 2
DILUPBiCGStab:  Solving for Uz, Initial residual = 0.06103295, Final residual = 4.288397e-06, No Iterations 2
DILUPBiCGStab:  Solving for T, Initial residual = 0.07160973, Final residual = 3.989294e-06, No Iterations 2
GAMG:  Solving for p_rgh, Initial residual = 0.1163656, Final residual = 0.001095524, No Iterations 3
GAMG:  Solving for p_rgh, Initial residual = 0.002995042, Final residual = 2.260053e-05, No Iterations 10
GAMG:  Solving for p_rgh, Initial residual = 0.0002527744, Final residual = 2.330928e-06, No Iterations 4
time step continuity errors : sum local = 1.881181e-05, global = 3.82224e-07, cumulative = -1.933783e-06
DILUPBiCGStab:  Solving for epsilon, Initial residual = 0.2232562, Final residual = 5.275348e-06, No Iterations 2
DILUPBiCGStab:  Solving for k, Initial residual = 0.1746906, Final residual = 0.0001608296, No Iterations 1
ExecutionTime = 1.56 s  ClockTime = 16 s

fieldMinMax fieldMinMax1 write:
    min(U) = (-0.633736 -2.995695 -0.7902944) in cell 11613 at location (1.62581 2.583516 0.3162408)
    max(U) = (0.6217767 0.7482255 2.304066) in cell 38401 at location (0.794789 2.588915 6.465942)
    min(p_rgh) = -23.10615 in cell 54663 at location (2.800512 2.586543 6.540236)
    max(p_rgh) = 8.459156 in cell 1726 at location (0.06601387 2.681378 0.07355884)
    min(T) = 210.108 in cell 2275 at location (1.885817 0.07267846 0.08000475)
    max(T) = 385.8586 in cell 61810 at location (6.433637 3.095703 6.926774)

Time = 5

DILUPBiCGStab:  Solving for Ux, Initial residual = 0.05872203, Final residual = 4.072412e-06, No Iterations 2
DILUPBiCGStab:  Solving for Uy, Initial residual = 0.04279744, Final residual = 1.71783e-06, No Iterations 2
DILUPBiCGStab:  Solving for Uz, Initial residual = 0.0429277, Final residual = 3.09158e-06, No Iterations 2
DILUPBiCGStab:  Solving for T, Initial residual = 0.05996191, Final residual = 3.901597e-06, No Iterations 2
GAMG:  Solving for p_rgh, Initial residual = 0.1042689, Final residual = 0.0008965708, No Iterations 3
GAMG:  Solving for p_rgh, Initial residual = 0.002613772, Final residual = 2.26389e-05, No Iterations 8
GAMG:  Solving for p_rgh, Initial residual = 0.0002100005, Final residual = 1.73281e-06, No Iterations 4
time step continuity errors : sum local = 1.164615e-05, global = 1.277637e-07, cumulative = -1.806019e-06
DILUPBiCGStab:  Solving for epsilon, Initial residual = 0.1503186, Final residual = 3.547775e-06, No Iterations 2
DILUPBiCGStab:  Solving for k, Initial residual = 0.1140196, Final residual = 7.424144e-05, No Iterations 1
ExecutionTime = 1.86 s  ClockTime = 16 s

fieldMinMax fieldMinMax1 write:
    min(U) = (-0.2371535 -2.998381 -1.130499) in cell 18032 at location (3.076981 2.583954 0.3869219)
    max(U) = (0.6070869 0.7354629 1.046291) in cell 36148 at location (0.6518582 2.591116 6.392038)
    min(p_rgh) = -22.29174 in cell 54664 at location (2.869659 2.586539 6.540242)
    max(p_rgh) = 6.07051 in cell 19346 at location (0.07384455 2.281616 4.969172)
    min(T) = 212.7798 in cell 2275 at location (1.885817 0.07267846 0.08000475)
    max(T) = 381.9838 in cell 61810 at location (6.433637 3.095703 6.926774)

Time = 6

DILUPBiCGStab:  Solving for Ux, Initial residual = 0.04798694, Final residual = 3.376235e-06, No Iterations 2
DILUPBiCGStab:  Solving for Uy, Initial residual = 0.03196439, Final residual = 1.503872e-06, No Iterations 2
DILUPBiCGStab:  Solving for Uz, Initial residual = 0.03356387, Final residual = 3.186497e-06, No Iterations 2
DILUPBiCGStab:  Solving for T, Initial residual = 0.05233746, Final residual = 3.178724e-06, No Iterations 2
GAMG:  Solving for p_rgh, Initial residual = 0.0961154, Final residual = 0.0008577664, No Iterations 3
GAMG:  Solving for p_rgh, Initial residual = 0.002391124, Final residual = 1.907163e-05, No Iterations 10
GAMG:  Solving for p_rgh, Initial residual = 0.0001836118, Final residual = 1.370331e-06, No Iterations 5
time step continuity errors : sum local = 7.617926e-06, global = -5.437176e-08, cumulative = -1.860391e-06
DILUPBiCGStab:  Solving for epsilon, Initial residual = 0.1122564, Final residual = 2.683221e-06, No Iterations 2
DILUPBiCGStab:  Solving for k, Initial residual = 0.08244184, Final residual = 4.569849e-05, No Iterations 1
ExecutionTime = 2.17 s  ClockTime = 17 s

fieldMinMax fieldMinMax1 write:
    min(U) = (-0.4390799 -3.049002 -0.8793465) in cell 11142 at location (1.625571 2.584182 0.3877324)
    max(U) = (0.7077536 0.7781455 0.8389273) in cell 49733 at location (2.172827 2.590827 6.540196)
    min(p_rgh) = -18.53032 in cell 54663 at location (2.800512 2.586543 6.540236)
    max(p_rgh) = 7.309634 in cell 1726 at location (0.06601387 2.681378 0.07355884)
    min(T) = 215.0005 in cell 2275 at location (1.885817 0.07267846 0.08000475)
    max(T) = 379.7694 in cell 61810 at location (6.433637 3.095703 6.926774)

Time = 7

DILUPBiCGStab:  Solving for Ux, Initial residual = 0.03961408, Final residual = 2.563461e-06, No Iterations 2
DILUPBiCGStab:  Solving for Uy, Initial residual = 0.02421729, Final residual = 1.091783e-06, No Iterations 2
DILUPBiCGStab:  Solving for Uz, Initial residual = 0.02737381, Final residual = 3.251838e-06, No Iterations 2
DILUPBiCGStab:  Solving for T, Initial residual = 0.04767944, Final residual = 2.68485e-06, No Iterations 2
GAMG:  Solving for p_rgh, Initial residual = 0.09163238, Final residual = 0.0006975233, No Iterations 3
GAMG:  Solving for p_rgh, Initial residual = 0.002120689, Final residual = 1.675164e-05, No Iterations 9
GAMG:  Solving for p_rgh, Initial residual = 0.0001615001, Final residual = 1.370161e-06, No Iterations 6
time step continuity errors : sum local = 6.722259e-06, global = 5.428814e-08, cumulative = -1.806103e-06
DILUPBiCGStab:  Solving for epsilon, Initial residual = 0.08953023, Final residual = 2.110477e-06, No Iterations 2
DILUPBiCGStab:  Solving for k, Initial residual = 0.06373772, Final residual = 3.33624e-05, No Iterations 1
ExecutionTime = 2.48 s  ClockTime = 17 s

fieldMinMax fieldMinMax1 write:
    min(U) = (-0.3670164 -2.846375 -1.109895) in cell 17881 at location (3.076869 2.651733 0.3160228)
    max(U) = (0.5981536 0.7797902 0.9873106) in cell 36148 at location (0.6518582 2.591116 6.392038)
    min(p_rgh) = -18.32328 in cell 42073 at location (0.6547811 2.583192 6.962041)
    max(p_rgh) = 6.235635 in cell 7426 at location (0.07447033 2.281582 2.310768)
    min(T) = 216.6432 in cell 8381 at location (3.555482 0.07435312 0.081635)
    max(T) = 378.3493 in cell 61810 at location (6.433637 3.095703 6.926774)

Time = 8

DILUPBiCGStab:  Solving for Ux, Initial residual = 0.0339925, Final residual = 2.222886e-06, No Iterations 2
DILUPBiCGStab:  Solving for Uy, Initial residual = 0.01989692, Final residual = 1.080603e-06, No Iterations 2
DILUPBiCGStab:  Solving for Uz, Initial residual = 0.02297246, Final residual = 3.550535e-06, No Iterations 2
DILUPBiCGStab:  Solving for T, Initial residual = 0.04421926, Final residual = 2.26735e-06, No Iterations 2
GAMG:  Solving for p_rgh, Initial residual = 0.08658229, Final residual = 0.0007091111, No Iterations 3
GAMG:  Solving for p_rgh, Initial residual = 0.002058795, Final residual = 1.669453e-05, No Iterations 9
GAMG:  Solving for p_rgh, Initial residual = 0.000145451, Final residual = 1.165644e-06, No Iterations 7
time step continuity errors : sum local = 4.926907e-06, global = 4.565731e-08, cumulative = -1.760446e-06
DILUPBiCGStab:  Solving for epsilon, Initial residual = 0.07452019, Final residual = 1.678977e-06, No Iterations 2
DILUPBiCGStab:  Solving for k, Initial residual = 0.05149756, Final residual = 2.632944e-05, No Iterations 1
ExecutionTime = 2.8 s  ClockTime = 17 s

fieldMinMax fieldMinMax1 write:
    min(U) = (-0.3750095 -2.859134 -1.097735) in cell 17881 at location (3.076869 2.651733 0.3160228)
    max(U) = (0.832708 0.6758087 0.8792326) in cell 37293 at location (0.5819441 2.58989 6.464932)
    min(p_rgh) = -18.14763 in cell 42073 at location (0.6547811 2.583192 6.962041)
    max(p_rgh) = 6.971381 in cell 7338 at location (0.3452308 2.284767 2.03856)
    min(T) = 217.6806 in cell 8381 at location (3.555482 0.07435312 0.081635)
    max(T) = 377.372 in cell 61810 at location (6.433637 3.095703 6.926774)

Time = 9

DILUPBiCGStab:  Solving for Ux, Initial residual = 0.03003961, Final residual = 1.918736e-06, No Iterations 2
DILUPBiCGStab:  Solving for Uy, Initial residual = 0.01669564, Final residual = 9.238134e-07, No Iterations 2
DILUPBiCGStab:  Solving for Uz, Initial residual = 0.02002094, Final residual = 2.093134e-06, No Iterations 2
DILUPBiCGStab:  Solving for T, Initial residual = 0.04169746, Final residual = 2.096533e-06, No Iterations 2
GAMG:  Solving for p_rgh, Initial residual = 0.08329943, Final residual = 0.000522213, No Iterations 3
GAMG:  Solving for p_rgh, Initial residual = 0.001836464, Final residual = 1.835471e-05, No Iterations 6
GAMG:  Solving for p_rgh, Initial residual = 0.0001287214, Final residual = 1.199386e-06, No Iterations 5
time step continuity errors : sum local = 4.570587e-06, global = -2.867452e-08, cumulative = -1.78912e-06
DILUPBiCGStab:  Solving for epsilon, Initial residual = 0.06385625, Final residual = 6.180925e-05, No Iterations 1
DILUPBiCGStab:  Solving for k, Initial residual = 0.04295779, Final residual = 2.176398e-05, No Iterations 1
ExecutionTime = 3.08 s  ClockTime = 17 s

fieldMinMax fieldMinMax1 write:
    min(U) = (-0.59993 -2.877996 -0.689968) in cell 17192 at location (3.145815 2.650735 0.2451882)
    max(U) = (0.7088408 0.6273946 0.9132443) in cell 36172 at location (0.5817539 2.660457 6.395331)
    min(p_rgh) = -18.92655 in cell 42073 at location (0.6547811 2.583192 6.962041)
    max(p_rgh) = 6.698224 in cell 6327 at location (0.34429 2.269712 1.780212)
    min(T) = 218.5912 in cell 8381 at location (3.555482 0.07435312 0.081635)
    max(T) = 376.6109 in cell 61810 at location (6.433637 3.095703 6.926774)

Time = 10

DILUPBiCGStab:  Solving for Ux, Initial residual = 0.02614946, Final residual = 1.62541e-06, No Iterations 2
DILUPBiCGStab:  Solving for Uy, Initial residual = 0.01553621, Final residual = 8.906253e-07, No Iterations 2
DILUPBiCGStab:  Solving for Uz, Initial residual = 0.01781356, Final residual = 1.341358e-06, No Iterations 2
DILUPBiCGStab:  Solving for T, Initial residual = 0.03966574, Final residual = 2.00108e-06, No Iterations 2
GAMG:  Solving for p_rgh, Initial residual = 0.08060117, Final residual = 0.0005821214, No Iterations 3
GAMG:  Solving for p_rgh, Initial residual = 0.001839202, Final residual = 1.083951e-05, No Iterations 5
GAMG:  Solving for p_rgh, Initial residual = 0.0001254562, Final residual = 6.389304e-07, No Iterations 4
time step continuity errors : sum local = 2.165708e-06, global = -9.689775e-09, cumulative = -1.79881e-06
DILUPBiCGStab:  Solving for epsilon, Initial residual = 0.05589231, Final residual = 5.165084e-05, No Iterations 1
DILUPBiCGStab:  Solving for k, Initial residual = 0.03671951, Final residual = 1.852836e-05, No Iterations 1
ExecutionTime = 3.35 s  ClockTime = 18 s

fieldMinMax fieldMinMax1 write:
    min(U) = (-0.1494924 -3.148789 -0.8607798) in cell 17357 at location (3.007921 2.583959 0.3869204)
    max(U) = (0.7290538 0.5143903 1.183877) in cell 37290 at location (0.6525233 2.660776 6.394864)
    min(p_rgh) = -19.10947 in cell 42073 at location (0.6547811 2.583192 6.962041)
    max(p_rgh) = 7.257497 in cell 6327 at location (0.34429 2.269712 1.780212)
    min(T) = 219.4781 in cell 8381 at location (3.555482 0.07435312 0.081635)
    max(T) = 375.935 in cell 61810 at location (6.433637 3.095703 6.926774)

Time = 11

DILUPBiCGStab:  Solving for Ux, Initial residual = 0.02465265, Final residual = 1.543029e-06, No Iterations 2
DILUPBiCGStab:  Solving for Uy, Initial residual = 0.01420819, Final residual = 7.101236e-07, No Iterations 2
DILUPBiCGStab:  Solving for Uz, Initial residual = 0.01619404, Final residual = 1.053936e-06, No Iterations 2
DILUPBiCGStab:  Solving for T, Initial residual = 0.03818762, Final residual = 1.92565e-06, No Iterations 2
GAMG:  Solving for p_rgh, Initial residual = 0.07802423, Final residual = 0.0003966628, No Iterations 3
GAMG:  Solving for p_rgh, Initial residual = 0.001604219, Final residual = 1.290843e-05, No Iterations 6
GAMG:  Solving for p_rgh, Initial residual = 0.0001072457, Final residual = 1.071963e-06, No Iterations 4
time step continuity errors : sum local = 3.335436e-06, global = 1.245129e-08, cumulative = -1.786359e-06
DILUPBiCGStab:  Solving for epsilon, Initial residual = 0.04967831, Final residual = 4.411803e-05, No Iterations 1
DILUPBiCGStab:  Solving for k, Initial residual = 0.03196555, Final residual = 1.609287e-05, No Iterations 1
ExecutionTime = 3.63 s  ClockTime = 18 s

fieldMinMax fieldMinMax1 write:
    min(U) = (-0.2843524 -2.891876 -1.099161) in cell 17202 at location (3.007854 2.65174 0.31603)
    max(U) = (0.7265296 0.5423118 1.169614) in cell 37290 at location (0.6525233 2.660776 6.394864)
    min(p_rgh) = -19.79044 in cell 42073 at location (0.6547811 2.583192 6.962041)
    max(p_rgh) = 7.279139 in cell 6507 at location (0.4834961 2.270775 1.782237)
    min(T) = 220.3655 in cell 8381 at location (3.555482 0.07435312 0.081635)
    max(T) = 375.2528 in cell 61810 at location (6.433637 3.095703 6.926774)

Time = 12

DILUPBiCGStab:  Solving for Ux, Initial residual = 0.02185857, Final residual = 1.246394e-06, No Iterations 2
DILUPBiCGStab:  Solving for Uy, Initial residual = 0.01394898, Final residual = 7.651283e-07, No Iterations 2
DILUPBiCGStab:  Solving for Uz, Initial residual = 0.01498298, Final residual = 9.589973e-07, No Iterations 2
DILUPBiCGStab:  Solving for T, Initial residual = 0.03687, Final residual = 1.884762e-06, No Iterations 2
GAMG:  Solving for p_rgh, Initial residual = 0.0760573, Final residual = 0.000451512, No Iterations 3
GAMG:  Solving for p_rgh, Initial residual = 0.001623313, Final residual = 1.49197e-05, No Iterations 6
GAMG:  Solving for p_rgh, Initial residual = 0.0001089635, Final residual = 1.077052e-06, No Iterations 6
time step continuity errors : sum local = 3.048742e-06, global = -3.252869e-08, cumulative = -1.818887e-06
DILUPBiCGStab:  Solving for epsilon, Initial residual = 0.04466337, Final residual = 3.839331e-05, No Iterations 1
DILUPBiCGStab:  Solving for k, Initial residual = 0.02820618, Final residual = 1.432098e-05, No Iterations 1
ExecutionTime = 3.92 s  ClockTime = 18 s

fieldMinMax fieldMinMax1 write:
    min(U) = (-0.2966466 -2.892781 -1.10168) in cell 17202 at location (3.007854 2.65174 0.31603)
    max(U) = (0.8643858 0.4460421 1.508624) in cell 37294 at location (0.653258 2.589768 6.46511)
    min(p_rgh) = -20.21787 in cell 42073 at location (0.6547811 2.583192 6.962041)
    max(p_rgh) = 7.659207 in cell 6507 at location (0.4834961 2.270775 1.782237)
    min(T) = 221.341 in cell 8381 at location (3.555482 0.07435312 0.081635)
    max(T) = 374.515 in cell 61810 at location (6.433637 3.095703 6.926774)

Time = 13

DILUPBiCGStab:  Solving for Ux, Initial residual = 0.02155074, Final residual = 1.24044e-06, No Iterations 2
DILUPBiCGStab:  Solving for Uy, Initial residual = 0.01342274, Final residual = 6.746546e-07, No Iterations 2
DILUPBiCGStab:  Solving for Uz, Initial residual = 0.0140849, Final residual = 8.830905e-07, No Iterations 2
DILUPBiCGStab:  Solving for T, Initial residual = 0.03574752, Final residual = 1.81977e-06, No Iterations 2
GAMG:  Solving for p_rgh, Initial residual = 0.07520542, Final residual = 0.0003749744, No Iterations 3
GAMG:  Solving for p_rgh, Initial residual = 0.001539928, Final residual = 1.163169e-05, No Iterations 5
GAMG:  Solving for p_rgh, Initial residual = 9.954699e-05, Final residual = 7.86167e-07, No Iterations 4
time step continuity errors : sum local = 2.065968e-06, global = -3.289793e-09, cumulative = -1.822177e-06
DILUPBiCGStab:  Solving for epsilon, Initial residual = 0.04050271, Final residual = 3.389682e-05, No Iterations 1
DILUPBiCGStab:  Solving for k, Initial residual = 0.02514546, Final residual = 1.30721e-05, No Iterations 1
ExecutionTime = 4.2 s  ClockTime = 19 s

fieldMinMax fieldMinMax1 write:
    min(U) = (-0.30985 -2.890908 -1.10731) in cell 17202 at location (3.007854 2.65174 0.31603)
    max(U) = (0.8667746 0.5064129 1.516787) in cell 37294 at location (0.653258 2.589768 6.46511)
    min(p_rgh) = -20.94297 in cell 42073 at location (0.6547811 2.583192 6.962041)
    max(p_rgh) = 7.743005 in cell 6507 at location (0.4834961 2.270775 1.782237)
    min(T) = 222.4511 in cell 8381 at location (3.555482 0.07435312 0.081635)
    max(T) = 373.7002 in cell 61810 at location (6.433637 3.095703 6.926774)

Time = 14

DILUPBiCGStab:  Solving for Ux, Initial residual = 0.01982907, Final residual = 1.05773e-06, No Iterations 2
DILUPBiCGStab:  Solving for Uy, Initial residual = 0.01328677, Final residual = 6.687335e-07, No Iterations 2
DILUPBiCGStab:  Solving for Uz, Initial residual = 0.0132917, Final residual = 8.320101e-07, No Iterations 2
DILUPBiCGStab:  Solving for T, Initial residual = 0.03489641, Final residual = 1.757792e-06, No Iterations 2
GAMG:  Solving for p_rgh, Initial residual = 0.074075, Final residual = 0.0003711778, No Iterations 3
GAMG:  Solving for p_rgh, Initial residual = 0.001506383, Final residual = 1.188154e-05, No Iterations 6
GAMG:  Solving for p_rgh, Initial residual = 9.895602e-05, Final residual = 9.5635e-07, No Iterations 6
time step continuity errors : sum local = 2.320394e-06, global = -2.545569e-08, cumulative = -1.847633e-06
DILUPBiCGStab:  Solving for epsilon, Initial residual = 0.03695715, Final residual = 3.031472e-05, No Iterations 1
DILUPBiCGStab:  Solving for k, Initial residual = 0.02261355, Final residual = 1.220777e-05, No Iterations 1
ExecutionTime = 4.49 s  ClockTime = 19 s

fieldMinMax fieldMinMax1 write:
    min(U) = (-0.6034361 -2.882395 -1.040344) in cell 17882 at location (3.145743 2.651723 0.3160089)
    max(U) = (0.8723068 0.5699604 1.529807) in cell 37294 at location (0.653258 2.589768 6.46511)
    min(p_rgh) = -21.52107 in cell 42073 at location (0.6547811 2.583192 6.962041)
    max(p_rgh) = 7.996413 in cell 7533 at location (0.622409 2.284582 1.906436)
    min(T) = 223.5848 in cell 8381 at location (3.555482 0.07435312 0.081635)
    max(T) = 372.8067 in cell 61810 at location (6.433637 3.095703 6.926774)

Time = 15

DILUPBiCGStab:  Solving for Ux, Initial residual = 0.01966033, Final residual = 1.041079e-06, No Iterations 2
DILUPBiCGStab:  Solving for Uy, Initial residual = 0.01308586, Final residual = 6.30427e-07, No Iterations 2
DILUPBiCGStab:  Solving for Uz, Initial residual = 0.01284242, Final residual = 7.794087e-07, No Iterations 2
DILUPBiCGStab:  Solving for T, Initial residual = 0.03411827, Final residual = 1.68426e-06, No Iterations 2
GAMG:  Solving for p_rgh, Initial residual = 0.07305004, Final residual = 0.0003772786, No Iterations 3
GAMG:  Solving for p_rgh, Initial residual = 0.001484516, Final residual = 1.288936e-05, No Iterations 4
GAMG:  Solving for p_rgh, Initial residual = 9.662564e-05, Final residual = 6.741789e-07, No Iterations 5
time step continuity errors : sum local = 1.53283e-06, global = 1.691564e-08, cumulative = -1.830717e-06
DILUPBiCGStab:  Solving for epsilon, Initial residual = 0.0338557, Final residual = 2.739425e-05, No Iterations 1
DILUPBiCGStab:  Solving for k, Initial residual = 0.02049662, Final residual = 1.156543e-05, No Iterations 1
ExecutionTime = 4.78 s  ClockTime = 19 s

fieldMinMax fieldMinMax1 write:
    min(U) = (-0.6197966 -2.879711 -1.045297) in cell 17882 at location (3.145743 2.651723 0.3160089)
    max(U) = (0.8805512 0.6333737 1.546927) in cell 37294 at location (0.653258 2.589768 6.46511)
    min(p_rgh) = -22.44079 in cell 42073 at location (0.6547811 2.583192 6.962041)
    max(p_rgh) = 8.051578 in cell 7008 at location (0.6223429 2.271175 1.782798)
    min(T) = 224.7883 in cell 8381 at location (3.555482 0.07435312 0.081635)
    max(T) = 371.8445 in cell 61810 at location (6.433637 3.095703 6.926774)

Time = 16

DILUPBiCGStab:  Solving for Ux, Initial residual = 0.01868225, Final residual = 9.445197e-07, No Iterations 2
DILUPBiCGStab:  Solving for Uy, Initial residual = 0.01305284, Final residual = 6.283e-07, No Iterations 2
DILUPBiCGStab:  Solving for Uz, Initial residual = 0.01245706, Final residual = 7.239784e-07, No Iterations 2
DILUPBiCGStab:  Solving for T, Initial residual = 0.03337627, Final residual = 1.644924e-06, No Iterations 2
GAMG:  Solving for p_rgh, Initial residual = 0.07186962, Final residual = 0.0003667843, No Iterations 3
GAMG:  Solving for p_rgh, Initial residual = 0.001446082, Final residual = 1.362964e-05, No Iterations 5
GAMG:  Solving for p_rgh, Initial residual = 9.615997e-05, Final residual = 8.961852e-07, No Iterations 6
time step continuity errors : sum local = 1.911527e-06, global = -1.435642e-08, cumulative = -1.845074e-06
DILUPBiCGStab:  Solving for epsilon, Initial residual = 0.03110546, Final residual = 2.49769e-05, No Iterations 1
DILUPBiCGStab:  Solving for k, Initial residual = 0.01868246, Final residual = 1.102941e-05, No Iterations 1
ExecutionTime = 5.07 s  ClockTime = 19 s

fieldMinMax fieldMinMax1 write:
    min(U) = (-0.6366131 -2.874985 -1.052412) in cell 17882 at location (3.145743 2.651723 0.3160089)
    max(U) = (0.8910301 0.6941975 1.571924) in cell 37294 at location (0.653258 2.589768 6.46511)
    min(p_rgh) = -23.0894 in cell 42073 at location (0.6547811 2.583192 6.962041)
    max(p_rgh) = 8.145094 in cell 7008 at location (0.6223429 2.271175 1.782798)
    min(T) = 226.2804 in cell 8381 at location (3.555482 0.07435312 0.081635)
    max(T) = 370.8327 in cell 61810 at location (6.433637 3.095703 6.926774)

Time = 17

DILUPBiCGStab:  Solving for Ux, Initial residual = 0.01831922, Final residual = 9.127765e-07, No Iterations 2
DILUPBiCGStab:  Solving for Uy, Initial residual = 0.01310501, Final residual = 6.239366e-07, No Iterations 2
DILUPBiCGStab:  Solving for Uz, Initial residual = 0.01224505, Final residual = 6.759275e-07, No Iterations 2
DILUPBiCGStab:  Solving for T, Initial residual = 0.03258351, Final residual = 1.59581e-06, No Iterations 2
GAMG:  Solving for p_rgh, Initial residual = 0.07155289, Final residual = 0.0003964919, No Iterations 3
GAMG:  Solving for p_rgh, Initial residual = 0.001452858, Final residual = 1.09098e-05, No Iterations 5
GAMG:  Solving for p_rgh, Initial residual = 9.670486e-05, Final residual = 6.911403e-07, No Iterations 4
time step continuity errors : sum local = 1.388783e-06, global = 4.278563e-09, cumulative = -1.840795e-06
DILUPBiCGStab:  Solving for epsilon, Initial residual = 0.0286623, Final residual = 2.29785e-05, No Iterations 1
DILUPBiCGStab:  Solving for k, Initial residual = 0.01708322, Final residual = 1.054264e-05, No Iterations 1
ExecutionTime = 5.35 s  ClockTime = 20 s

fieldMinMax fieldMinMax1 write:
    min(U) = (-0.6537663 -2.868339 -1.06158) in cell 17882 at location (3.145743 2.651723 0.3160089)
    max(U) = (0.9024901 0.7489755 1.613322) in cell 37294 at location (0.653258 2.589768 6.46511)
    min(p_rgh) = -23.98929 in cell 42073 at location (0.6547811 2.583192 6.962041)
    max(p_rgh) = 8.154468 in cell 7526 at location (0.7609853 2.271052 1.782097)
    min(T) = 228.0861 in cell 8381 at location (3.555482 0.07435312 0.081635)
    max(T) = 369.8034 in cell 61810 at location (6.433637 3.095703 6.926774)

Time = 18

DILUPBiCGStab:  Solving for Ux, Initial residual = 0.01762728, Final residual = 8.536742e-07, No Iterations 2
DILUPBiCGStab:  Solving for Uy, Initial residual = 0.01316503, Final residual = 6.311825e-07, No Iterations 2
DILUPBiCGStab:  Solving for Uz, Initial residual = 0.01194975, Final residual = 6.37965e-07, No Iterations 2
DILUPBiCGStab:  Solving for T, Initial residual = 0.03182205, Final residual = 1.55327e-06, No Iterations 2
GAMG:  Solving for p_rgh, Initial residual = 0.07098031, Final residual = 0.0003969066, No Iterations 3
GAMG:  Solving for p_rgh, Initial residual = 0.0014369, Final residual = 1.025726e-05, No Iterations 5
GAMG:  Solving for p_rgh, Initial residual = 9.28336e-05, Final residual = 6.515892e-07, No Iterations 5
time step continuity errors : sum local = 1.235516e-06, global = -1.128096e-08, cumulative = -1.852076e-06
DILUPBiCGStab:  Solving for epsilon, Initial residual = 0.02646505, Final residual = 2.12122e-05, No Iterations 1
DILUPBiCGStab:  Solving for k, Initial residual = 0.01565121, Final residual = 1.007636e-05, No Iterations 1
ExecutionTime = 5.64 s  ClockTime = 20 s

fieldMinMax fieldMinMax1 write:
    min(U) = (-0.6710902 -2.860056 -1.072679) in cell 17882 at location (3.145743 2.651723 0.3160089)
    max(U) = (0.915141 0.7941577 1.6549) in cell 37294 at location (0.653258 2.589768 6.46511)
    min(p_rgh) = -24.73597 in cell 42073 at location (0.6547811 2.583192 6.962041)
    max(p_rgh) = 8.137881 in cell 7526 at location (0.7609853 2.271052 1.782097)
    min(T) = 230.1926 in cell 8381 at location (3.555482 0.07435312 0.081635)
    max(T) = 368.7878 in cell 61810 at location (6.433637 3.095703 6.926774)

Time = 19

DILUPBiCGStab:  Solving for Ux, Initial residual = 0.01714322, Final residual = 8.164057e-07, No Iterations 2
DILUPBiCGStab:  Solving for Uy, Initial residual = 0.01328276, Final residual = 6.408768e-07, No Iterations 2
DILUPBiCGStab:  Solving for Uz, Initial residual = 0.01175652, Final residual = 6.051663e-07, No Iterations 2
DILUPBiCGStab:  Solving for T, Initial residual = 0.0310928, Final residual = 1.519646e-06, No Iterations 2
GAMG:  Solving for p_rgh, Initial residual = 0.07011387, Final residual = 0.0004195796, No Iterations 3
GAMG:  Solving for p_rgh, Initial residual = 0.001431215, Final residual = 1.160094e-05, No Iterations 5
GAMG:  Solving for p_rgh, Initial residual = 9.08394e-05, Final residual = 6.677523e-07, No Iterations 4
time step continuity errors : sum local = 1.205637e-06, global = 4.63277e-09, cumulative = -1.847443e-06
DILUPBiCGStab:  Solving for epsilon, Initial residual = 0.02450172, Final residual = 1.958468e-05, No Iterations 1
DILUPBiCGStab:  Solving for k, Initial residual = 0.01436402, Final residual = 9.61545e-06, No Iterations 1
ExecutionTime = 5.91 s  ClockTime = 20 s

fieldMinMax fieldMinMax1 write:
    min(U) = (-0.6884869 -2.85025 -1.085574) in cell 17882 at location (3.145743 2.651723 0.3160089)
    max(U) = (0.9274401 0.8308178 1.701227) in cell 37294 at location (0.653258 2.589768 6.46511)
    min(p_rgh) = -25.56229 in cell 42073 at location (0.6547811 2.583192 6.962041)
    max(p_rgh) = 8.015923 in cell 7526 at location (0.7609853 2.271052 1.782097)
    min(T) = 232.542 in cell 8381 at location (3.555482 0.07435312 0.081635)
    max(T) = 367.8067 in cell 61810 at location (6.433637 3.095703 6.926774)

Time = 20

DILUPBiCGStab:  Solving for Ux, Initial residual = 0.01662906, Final residual = 7.744917e-07, No Iterations 2
DILUPBiCGStab:  Solving for Uy, Initial residual = 0.01341505, Final residual = 6.598915e-07, No Iterations 2
DILUPBiCGStab:  Solving for Uz, Initial residual = 0.01151983, Final residual = 5.721132e-07, No Iterations 2
DILUPBiCGStab:  Solving for T, Initial residual = 0.03038071, Final residual = 1.47759e-06, No Iterations 2
GAMG:  Solving for p_rgh, Initial residual = 0.06978909, Final residual = 0.0004210242, No Iterations 3
GAMG:  Solving for p_rgh, Initial residual = 0.00142899, Final residual = 9.515449e-06, No Iterations 5
GAMG:  Solving for p_rgh, Initial residual = 9.072697e-05, Final residual = 8.668743e-07, No Iterations 5
time step continuity errors : sum local = 1.494223e-06, global = 1.97391e-08, cumulative = -1.827704e-06
DILUPBiCGStab:  Solving for epsilon, Initial residual = 0.02274355, Final residual = 1.806923e-05, No Iterations 1
DILUPBiCGStab:  Solving for k, Initial residual = 0.01320679, Final residual = 9.153996e-06, No Iterations 1
ExecutionTime = 6.19 s  ClockTime = 21 s

fieldMinMax fieldMinMax1 write:
    min(U) = (-0.7058788 -2.839108 -1.100168) in cell 17882 at location (3.145743 2.651723 0.3160089)
    max(U) = (0.9391819 0.8569217 1.751245) in cell 37294 at location (0.653258 2.589768 6.46511)
    min(p_rgh) = -26.14043 in cell 42073 at location (0.6547811 2.583192 6.962041)
    max(p_rgh) = 7.904034 in cell 7526 at location (0.7609853 2.271052 1.782097)
    min(T) = 234.2982 in cell 2292 at location (2.313344 0.03705713 0.5359436)
    max(T) = 366.8612 in cell 61810 at location (6.433637 3.095703 6.926774)

Time = 21

DILUPBiCGStab:  Solving for Ux, Initial residual = 0.0161796, Final residual = 7.403841e-07, No Iterations 2
DILUPBiCGStab:  Solving for Uy, Initial residual = 0.01356061, Final residual = 6.854838e-07, No Iterations 2
DILUPBiCGStab:  Solving for Uz, Initial residual = 0.01133439, Final residual = 5.476906e-07, No Iterations 2
DILUPBiCGStab:  Solving for T, Initial residual = 0.02963615, Final residual = 1.430372e-06, No Iterations 2
GAMG:  Solving for p_rgh, Initial residual = 0.06915455, Final residual = 0.0004400678, No Iterations 3
GAMG:  Solving for p_rgh, Initial residual = 0.001414948, Final residual = 9.892282e-06, No Iterations 5
GAMG:  Solving for p_rgh, Initial residual = 8.77686e-05, Final residual = 5.554565e-07, No Iterations 4
time step continuity errors : sum local = 9.156893e-07, global = 1.465946e-08, cumulative = -1.813045e-06
DILUPBiCGStab:  Solving for epsilon, Initial residual = 0.02115569, Final residual = 1.661177e-05, No Iterations 1
DILUPBiCGStab:  Solving for k, Initial residual = 0.01218635, Final residual = 8.693177e-06, No Iterations 1
ExecutionTime = 6.47 s  ClockTime = 21 s

fieldMinMax fieldMinMax1 write:
    min(U) = (-0.7232114 -2.826735 -1.116431) in cell 17882 at location (3.145743 2.651723 0.3160089)
    max(U) = (0.949244 0.8770644 1.805417) in cell 37294 at location (0.653258 2.589768 6.46511)
    min(p_rgh) = -26.76999 in cell 42073 at location (0.6547811 2.583192 6.962041)
    max(p_rgh) = 7.694729 in cell 7008 at location (0.6223429 2.271175 1.782798)
    min(T) = 235.2857 in cell 2292 at location (2.313344 0.03705713 0.5359436)
    max(T) = 365.9404 in cell 61810 at location (6.433637 3.095703 6.926774)

Time = 22

DILUPBiCGStab:  Solving for Ux, Initial residual = 0.01579996, Final residual = 7.164869e-07, No Iterations 2
DILUPBiCGStab:  Solving for Uy, Initial residual = 0.01370233, Final residual = 7.099119e-07, No Iterations 2
DILUPBiCGStab:  Solving for Uz, Initial residual = 0.01116946, Final residual = 5.27791e-07, No Iterations 2
DILUPBiCGStab:  Solving for T, Initial residual = 0.02888528, Final residual = 1.387125e-06, No Iterations 2
GAMG:  Solving for p_rgh, Initial residual = 0.06895915, Final residual = 0.0004303281, No Iterations 3
GAMG:  Solving for p_rgh, Initial residual = 0.001397849, Final residual = 8.08322e-06, No Iterations 5
GAMG:  Solving for p_rgh, Initial residual = 8.912144e-05, Final residual = 8.288976e-07, No Iterations 4
time step continuity errors : sum local = 1.312346e-06, global = -1.653496e-08, cumulative = -1.82958e-06
DILUPBiCGStab:  Solving for epsilon, Initial residual = 0.01968201, Final residual = 1.519815e-05, No Iterations 1
DILUPBiCGStab:  Solving for k, Initial residual = 0.01129561, Final residual = 8.251076e-06, No Iterations 1
ExecutionTime = 6.75 s  ClockTime = 21 s

fieldMinMax fieldMinMax1 write:
    min(U) = (-0.7405037 -2.813319 -1.134294) in cell 17882 at location (3.145743 2.651723 0.3160089)
    max(U) = (0.9560788 0.8934169 1.864383) in cell 37294 at location (0.653258 2.589768 6.46511)
    min(p_rgh) = -27.17318 in cell 42073 at location (0.6547811 2.583192 6.962041)
    max(p_rgh) = 7.541713 in cell 0 at location (0.07191909 0.06538919 0.07790356)
    min(T) = 236.359 in cell 2292 at location (2.313344 0.03705713 0.5359436)
    max(T) = 365.033 in cell 61810 at location (6.433637 3.095703 6.926774)

Time = 23

DILUPBiCGStab:  Solving for Ux, Initial residual = 0.01544619, Final residual = 6.960628e-07, No Iterations 2
DILUPBiCGStab:  Solving for Uy, Initial residual = 0.01386075, Final residual = 7.363879e-07, No Iterations 2
DILUPBiCGStab:  Solving for Uz, Initial residual = 0.01102187, Final residual = 5.121339e-07, No Iterations 2
DILUPBiCGStab:  Solving for T, Initial residual = 0.02821872, Final residual = 1.357789e-06, No Iterations 2
GAMG:  Solving for p_rgh, Initial residual = 0.06912283, Final residual = 0.0004285184, No Iterations 3
GAMG:  Solving for p_rgh, Initial residual = 0.001389073, Final residual = 1.005344e-05, No Iterations 5
GAMG:  Solving for p_rgh, Initial residual = 8.657554e-05, Final residual = 4.019745e-07, No Iterations 4
time step continuity errors : sum local = 6.132789e-07, global = 3.500978e-09, cumulative = -1.826079e-06
DILUPBiCGStab:  Solving for epsilon, Initial residual = 0.01830356, Final residual = 1.383235e-05, No Iterations 1
DILUPBiCGStab:  Solving for k, Initial residual = 0.01052856, Final residual = 7.85607e-06, No Iterations 1
ExecutionTime = 7.03 s  ClockTime = 22 s

fieldMinMax fieldMinMax1 write:
    min(U) = (-0.4388357 -2.395282 -1.675849) in cell 10312 at location (1.486889 2.653408 0.3877843)
    max(U) = (0.959315 0.905069 1.922494) in cell 37294 at location (0.653258 2.589768 6.46511)
    min(p_rgh) = -27.52826 in cell 42073 at location (0.6547811 2.583192 6.962041)
    max(p_rgh) = 7.44784 in cell 0 at location (0.07191909 0.06538919 0.07790356)
    min(T) = 237.7281 in cell 2292 at location (2.313344 0.03705713 0.5359436)
    max(T) = 364.1033 in cell 61810 at location (6.433637 3.095703 6.926774)

Time = 24

DILUPBiCGStab:  Solving for Ux, Initial residual = 0.01519196, Final residual = 6.789599e-07, No Iterations 2
DILUPBiCGStab:  Solving for Uy, Initial residual = 0.01401677, Final residual = 7.904108e-07, No Iterations 2
DILUPBiCGStab:  Solving for Uz, Initial residual = 0.01088539, Final residual = 4.968224e-07, No Iterations 2
DILUPBiCGStab:  Solving for T, Initial residual = 0.02753422, Final residual = 1.305182e-06, No Iterations 2
GAMG:  Solving for p_rgh, Initial residual = 0.06916928, Final residual = 0.0004125272, No Iterations 3
GAMG:  Solving for p_rgh, Initial residual = 0.001383232, Final residual = 9.853096e-06, No Iterations 5
GAMG:  Solving for p_rgh, Initial residual = 9.09614e-05, Final residual = 5.409351e-07, No Iterations 4
time step continuity errors : sum local = 7.962137e-07, global = 8.903025e-09, cumulative = -1.817176e-06
DILUPBiCGStab:  Solving for epsilon, Initial residual = 0.01702019, Final residual = 1.253219e-05, No Iterations 1
DILUPBiCGStab:  Solving for k, Initial residual = 0.009890116, Final residual = 7.550225e-06, No Iterations 1
ExecutionTime = 7.31 s  ClockTime = 22 s

fieldMinMax fieldMinMax1 write:
    min(U) = (-0.4518108 -2.374146 -1.711069) in cell 10312 at location (1.486889 2.653408 0.3877843)
    max(U) = (0.9571951 0.9119805 1.97916) in cell 37294 at location (0.653258 2.589768 6.46511)
    min(p_rgh) = -27.67326 in cell 42073 at location (0.6547811 2.583192 6.962041)
    max(p_rgh) = 7.331846 in cell 0 at location (0.07191909 0.06538919 0.07790356)
    min(T) = 239.1295 in cell 2292 at location (2.313344 0.03705713 0.5359436)
    max(T) = 363.1265 in cell 61810 at location (6.433637 3.095703 6.926774)

Time = 25

DILUPBiCGStab:  Solving for Ux, Initial residual = 0.01494132, Final residual = 6.670304e-07, No Iterations 2
DILUPBiCGStab:  Solving for Uy, Initial residual = 0.0142084, Final residual = 7.753215e-07, No Iterations 2
DILUPBiCGStab:  Solving for Uz, Initial residual = 0.01074778, Final residual = 4.809322e-07, No Iterations 2
DILUPBiCGStab:  Solving for T, Initial residual = 0.02686026, Final residual = 1.263144e-06, No Iterations 2
GAMG:  Solving for p_rgh, Initial residual = 0.06962677, Final residual = 0.0004102226, No Iterations 3
GAMG:  Solving for p_rgh, Initial residual = 0.001348065, Final residual = 1.26566e-05, No Iterations 5
GAMG:  Solving for p_rgh, Initial residual = 8.42449e-05, Final residual = 5.332329e-07, No Iterations 5
time step continuity errors : sum local = 7.607806e-07, global = 3.093793e-09, cumulative = -1.814082e-06
DILUPBiCGStab:  Solving for epsilon, Initial residual = 0.01583454, Final residual = 1.131421e-05, No Iterations 1
DILUPBiCGStab:  Solving for k, Initial residual = 0.009395238, Final residual = 7.391211e-06, No Iterations 1
ExecutionTime = 7.58 s  ClockTime = 22 s

fieldMinMax fieldMinMax1 write:
    min(U) = (-0.4768183 -2.74439 -1.315382) in cell 17202 at location (3.007854 2.65174 0.31603)
    max(U) = (0.951675 0.9139507 2.033761) in cell 37294 at location (0.653258 2.589768 6.46511)
    min(p_rgh) = -27.74497 in cell 42073 at location (0.6547811 2.583192 6.962041)
    max(p_rgh) = 7.226843 in cell 0 at location (0.07191909 0.06538919 0.07790356)
    min(T) = 240.9393 in cell 2292 at location (2.313344 0.03705713 0.5359436)
    max(T) = 362.0807 in cell 61810 at location (6.433637 3.095703 6.926774)

Time = 26

DILUPBiCGStab:  Solving for Ux, Initial residual = 0.0147647, Final residual = 6.605644e-07, No Iterations 2
DILUPBiCGStab:  Solving for Uy, Initial residual = 0.01441431, Final residual = 7.818109e-07, No Iterations 2
DILUPBiCGStab:  Solving for Uz, Initial residual = 0.01062149, Final residual = 4.693994e-07, No Iterations 2
DILUPBiCGStab:  Solving for T, Initial residual = 0.02617895, Final residual = 1.225252e-06, No Iterations 2
GAMG:  Solving for p_rgh, Initial residual = 0.06934761, Final residual = 0.0004011406, No Iterations 3
GAMG:  Solving for p_rgh, Initial residual = 0.001339681, Final residual = 1.174539e-05, No Iterations 5
GAMG:  Solving for p_rgh, Initial residual = 8.965109e-05, Final residual = 4.763106e-07, No Iterations 5
time step continuity errors : sum local = 6.613841e-07, global = 1.432583e-09, cumulative = -1.812649e-06
DILUPBiCGStab:  Solving for epsilon, Initial residual = 0.01474582, Final residual = 1.018738e-05, No Iterations 1
DILUPBiCGStab:  Solving for k, Initial residual = 0.009034051, Final residual = 7.43077e-06, No Iterations 1
ExecutionTime = 7.87 s  ClockTime = 22 s

fieldMinMax fieldMinMax1 write:
    min(U) = (-0.4883288 -2.727723 -1.339136) in cell 17202 at location (3.007854 2.65174 0.31603)
    max(U) = (0.9421842 0.9121963 2.08486) in cell 37294 at location (0.653258 2.589768 6.46511)
    min(p_rgh) = -27.70286 in cell 42073 at location (0.6547811 2.583192 6.962041)
    max(p_rgh) = 7.101341 in cell 0 at location (0.07191909 0.06538919 0.07790356)
    min(T) = 241.6252 in cell 10828 at location (4.079579 0.06582671 1.32982)
    max(T) = 360.9279 in cell 61810 at location (6.433637 3.095703 6.926774)

Time = 27

DILUPBiCGStab:  Solving for Ux, Initial residual = 0.01460754, Final residual = 6.547519e-07, No Iterations 2
DILUPBiCGStab:  Solving for Uy, Initial residual = 0.01460074, Final residual = 7.982131e-07, No Iterations 2
DILUPBiCGStab:  Solving for Uz, Initial residual = 0.01051065, Final residual = 4.576005e-07, No Iterations 2
DILUPBiCGStab:  Solving for T, Initial residual = 0.02561739, Final residual = 1.183668e-06, No Iterations 2
GAMG:  Solving for p_rgh, Initial residual = 0.0697214, Final residual = 0.0003908961, No Iterations 3
GAMG:  Solving for p_rgh, Initial residual = 0.001297815, Final residual = 6.498465e-06, No Iterations 6
GAMG:  Solving for p_rgh, Initial residual = 7.749961e-05, Final residual = 4.471438e-07, No Iterations 4
time step continuity errors : sum local = 6.050135e-07, global = 2.964823e-09, cumulative = -1.809684e-06
DILUPBiCGStab:  Solving for epsilon, Initial residual = 0.01375868, Final residual = 9.14256e-06, No Iterations 1
DILUPBiCGStab:  Solving for k, Initial residual = 0.008804961, Final residual = 7.609421e-06, No Iterations 1
ExecutionTime = 8.15 s  ClockTime = 23 s

fieldMinMax fieldMinMax1 write:
    min(U) = (-0.4992031 -2.711083 -1.363357) in cell 17202 at location (3.007854 2.65174 0.31603)
    max(U) = (0.92864 0.9075425 2.130881) in cell 37294 at location (0.653258 2.589768 6.46511)
    min(p_rgh) = -27.56073 in cell 42073 at location (0.6547811 2.583192 6.962041)
    max(p_rgh) = 6.98814 in cell 0 at location (0.07191909 0.06538919 0.07790356)
    min(T) = 242.0355 in cell 10828 at location (4.079579 0.06582671 1.32982)
    max(T) = 359.6164 in cell 61810 at location (6.433637 3.095703 6.926774)

Time = 28

DILUPBiCGStab:  Solving for Ux, Initial residual = 0.01450741, Final residual = 6.572425e-07, No Iterations 2
DILUPBiCGStab:  Solving for Uy, Initial residual = 0.0148058, Final residual = 7.732291e-07, No Iterations 2
DILUPBiCGStab:  Solving for Uz, Initial residual = 0.01039742, Final residual = 4.459051e-07, No Iterations 2
DILUPBiCGStab:  Solving for T, Initial residual = 0.02503227, Final residual = 1.167635e-06, No Iterations 2
GAMG:  Solving for p_rgh, Initial residual = 0.06963826, Final residual = 0.0003804041, No Iterations 3
GAMG:  Solving for p_rgh, Initial residual = 0.001300833, Final residual = 7.540334e-06, No Iterations 6
GAMG:  Solving for p_rgh, Initial residual = 8.701642e-05, Final residual = 6.065207e-07, No Iterations 4
time step continuity errors : sum local = 8.009237e-07, global = 5.427322e-09, cumulative = -1.804257e-06
DILUPBiCGStab:  Solving for epsilon, Initial residual = 0.01287924, Final residual = 8.19652e-06, No Iterations 1
DILUPBiCGStab:  Solving for k, Initial residual = 0.008696528, Final residual = 7.909016e-06, No Iterations 1
ExecutionTime = 8.42 s  ClockTime = 23 s

fieldMinMax fieldMinMax1 write:
    min(U) = (-0.5094205 -2.694588 -1.38789) in cell 17202 at location (3.007854 2.65174 0.31603)
    max(U) = (0.9123207 0.9003639 2.172899) in cell 37294 at location (0.653258 2.589768 6.46511)
    min(p_rgh) = -27.23441 in cell 42073 at location (0.6547811 2.583192 6.962041)
    max(p_rgh) = 6.866546 in cell 0 at location (0.07191909 0.06538919 0.07790356)
    min(T) = 242.4381 in cell 11486 at location (4.079437 0.06590783 1.469659)
    max(T) = 358.0936 in cell 61810 at location (6.433637 3.095703 6.926774)

Time = 29

DILUPBiCGStab:  Solving for Ux, Initial residual = 0.01443902, Final residual = 6.69914e-07, No Iterations 2
DILUPBiCGStab:  Solving for Uy, Initial residual = 0.01498531, Final residual = 7.683654e-07, No Iterations 2
DILUPBiCGStab:  Solving for Uz, Initial residual = 0.01029281, Final residual = 4.360949e-07, No Iterations 2
DILUPBiCGStab:  Solving for T, Initial residual = 0.02449433, Final residual = 1.129766e-06, No Iterations 2
GAMG:  Solving for p_rgh, Initial residual = 0.06942776, Final residual = 0.0003590992, No Iterations 3
GAMG:  Solving for p_rgh, Initial residual = 0.001244993, Final residual = 1.137142e-05, No Iterations 5
GAMG:  Solving for p_rgh, Initial residual = 7.924112e-05, Final residual = 6.295746e-07, No Iterations 8
time step continuity errors : sum local = 8.128959e-07, global = 6.322142e-09, cumulative = -1.797935e-06
DILUPBiCGStab:  Solving for epsilon, Initial residual = 0.01209761, Final residual = 7.376006e-06, No Iterations 1
DILUPBiCGStab:  Solving for k, Initial residual = 0.008686729, Final residual = 8.342665e-06, No Iterations 1
ExecutionTime = 8.72 s  ClockTime = 23 s

fieldMinMax fieldMinMax1 write:
    min(U) = (-0.5189649 -2.678252 -1.412597) in cell 17202 at location (3.007854 2.65174 0.31603)
    max(U) = (0.89374 0.8909104 2.209423) in cell 37294 at location (0.653258 2.589768 6.46511)
    min(p_rgh) = -26.79311 in cell 42073 at location (0.6547811 2.583192 6.962041)
    max(p_rgh) = 6.778448 in cell 0 at location (0.07191909 0.06538919 0.07790356)
    min(T) = 242.8691 in cell 11486 at location (4.079437 0.06590783 1.469659)
    max(T) = 356.3114 in cell 61810 at location (6.433637 3.095703 6.926774)

Time = 30

DILUPBiCGStab:  Solving for Ux, Initial residual = 0.01441595, Final residual = 6.877408e-07, No Iterations 2
DILUPBiCGStab:  Solving for Uy, Initial residual = 0.01512747, Final residual = 7.435869e-07, No Iterations 2
DILUPBiCGStab:  Solving for Uz, Initial residual = 0.0101845, Final residual = 4.293764e-07, No Iterations 2
DILUPBiCGStab:  Solving for T, Initial residual = 0.02398162, Final residual = 1.102294e-06, No Iterations 2
GAMG:  Solving for p_rgh, Initial residual = 0.06964006, Final residual = 0.0003409516, No Iterations 3
GAMG:  Solving for p_rgh, Initial residual = 0.001240085, Final residual = 7.975707e-06, No Iterations 6
GAMG:  Solving for p_rgh, Initial residual = 8.730837e-05, Final residual = 6.545412e-07, No Iterations 5
time step continuity errors : sum local = 8.277869e-07, global = 4.975721e-09, cumulative = -1.792959e-06
DILUPBiCGStab:  Solving for epsilon, Initial residual = 0.01142643, Final residual = 6.701568e-06, No Iterations 1
DILUPBiCGStab:  Solving for k, Initial residual = 0.008755007, Final residual = 5.296184e-07, No Iterations 2
ExecutionTime = 9 s  ClockTime = 24 s

fieldMinMax fieldMinMax1 write:
    min(U) = (-0.5292253 -2.664666 -1.439416) in cell 17357 at location (3.007921 2.583959 0.3869204)
    max(U) = (0.8752989 0.8790546 2.241308) in cell 37294 at location (0.653258 2.589768 6.46511)
    min(p_rgh) = -26.1791 in cell 42073 at location (0.6547811 2.583192 6.962041)
    max(p_rgh) = 6.64893 in cell 0 at location (0.07191909 0.06538919 0.07790356)
    min(T) = 243.3665 in cell 11486 at location (4.079437 0.06590783 1.469659)
    max(T) = 354.2292 in cell 61810 at location (6.433637 3.095703 6.926774)

Time = 31

DILUPBiCGStab:  Solving for Ux, Initial residual = 0.01446607, Final residual = 7.010043e-07, No Iterations 2
DILUPBiCGStab:  Solving for Uy, Initial residual = 0.0152435, Final residual = 7.305974e-07, No Iterations 2
DILUPBiCGStab:  Solving for Uz, Initial residual = 0.01008266, Final residual = 4.245547e-07, No Iterations 2
DILUPBiCGStab:  Solving for T, Initial residual = 0.02347174, Final residual = 1.080411e-06, No Iterations 2
GAMG:  Solving for p_rgh, Initial residual = 0.06876858, Final residual = 0.0003271691, No Iterations 3
GAMG:  Solving for p_rgh, Initial residual = 0.001177305, Final residual = 1.070989e-05, No Iterations 5
GAMG:  Solving for p_rgh, Initial residual = 7.384921e-05, Final residual = 3.340249e-07, No Iterations 5
time step continuity errors : sum local = 4.147093e-07, global = -9.253985e-10, cumulative = -1.793885e-06
DILUPBiCGStab:  Solving for epsilon, Initial residual = 0.01083769, Final residual = 6.168369e-06, No Iterations 1
DILUPBiCGStab:  Solving for k, Initial residual = 0.008889651, Final residual = 5.215837e-07, No Iterations 2
ExecutionTime = 9.27 s  ClockTime = 24 s

fieldMinMax fieldMinMax1 write:
    min(U) = (-0.384128 -2.624607 -1.50519) in cell 17201 at location (2.938766 2.651745 0.3160338)
    max(U) = (0.8567898 0.8640329 2.268702) in cell 37294 at location (0.653258 2.589768 6.46511)
    min(p_rgh) = -25.47116 in cell 42073 at location (0.6547811 2.583192 6.962041)
    max(p_rgh) = 6.549417 in cell 0 at location (0.07191909 0.06538919 0.07790356)
    min(T) = 243.8433 in cell 12133 at location (4.217763 0.06583609 1.469786)
    max(T) = 351.8402 in cell 61810 at location (6.433637 3.095703 6.926774)

Time = 32

DILUPBiCGStab:  Solving for Ux, Initial residual = 0.01450266, Final residual = 7.170394e-07, No Iterations 2
DILUPBiCGStab:  Solving for Uy, Initial residual = 0.01532543, Final residual = 7.058946e-07, No Iterations 2
DILUPBiCGStab:  Solving for Uz, Initial residual = 0.009964837, Final residual = 4.219054e-07, No Iterations 2
DILUPBiCGStab:  Solving for T, Initial residual = 0.02301348, Final residual = 1.052452e-06, No Iterations 2
GAMG:  Solving for p_rgh, Initial residual = 0.0678201, Final residual = 0.0003086393, No Iterations 3
GAMG:  Solving for p_rgh, Initial residual = 0.001170075, Final residual = 1.021099e-05, No Iterations 6
GAMG:  Solving for p_rgh, Initial residual = 8.093196e-05, Final residual = 3.423362e-07, No Iterations 5
time step continuity errors : sum local = 4.17904e-07, global = 4.733804e-10, cumulative = -1.793411e-06
DILUPBiCGStab:  Solving for epsilon, Initial residual = 0.01036118, Final residual = 5.750957e-06, No Iterations 1
DILUPBiCGStab:  Solving for k, Initial residual = 0.009069305, Final residual = 4.924434e-07, No Iterations 2
ExecutionTime = 9.55 s  ClockTime = 24 s

fieldMinMax fieldMinMax1 write:
    min(U) = (-0.5838494 -2.587394 -1.563732) in cell 17357 at location (3.007921 2.583959 0.3869204)
    max(U) = (0.8380184 0.8460922 2.291853) in cell 37294 at location (0.653258 2.589768 6.46511)
    min(p_rgh) = -25.0142 in cell 60114 at location (3.48674 2.577765 6.965491)
    max(p_rgh) = 6.430185 in cell 0 at location (0.07191909 0.06538919 0.07790356)
    min(T) = 244.2869 in cell 12133 at location (4.217763 0.06583609 1.469786)
    max(T) = 349.9204 in cell 61711 at location (5.848936 3.193439 6.481073)

Time = 33

DILUPBiCGStab:  Solving for Ux, Initial residual = 0.01457205, Final residual = 7.422843e-07, No Iterations 2
DILUPBiCGStab:  Solving for Uy, Initial residual = 0.01538842, Final residual = 6.835242e-07, No Iterations 2
DILUPBiCGStab:  Solving for Uz, Initial residual = 0.009855099, Final residual = 4.26024e-07, No Iterations 2
DILUPBiCGStab:  Solving for T, Initial residual = 0.02256066, Final residual = 1.031691e-06, No Iterations 2
GAMG:  Solving for p_rgh, Initial residual = 0.06730415, Final residual = 0.0002988137, No Iterations 3
GAMG:  Solving for p_rgh, Initial residual = 0.001124321, Final residual = 8.259303e-06, No Iterations 6
GAMG:  Solving for p_rgh, Initial residual = 7.127253e-05, Final residual = 6.854271e-07, No Iterations 4
time step continuity errors : sum local = 8.243872e-07, global = 3.556451e-09, cumulative = -1.789855e-06
DILUPBiCGStab:  Solving for epsilon, Initial residual = 0.01002714, Final residual = 5.355304e-06, No Iterations 1
DILUPBiCGStab:  Solving for k, Initial residual = 0.009283903, Final residual = 4.55563e-07, No Iterations 2
ExecutionTime = 9.82 s  ClockTime = 24 s

fieldMinMax fieldMinMax1 write:
    min(U) = (-0.8970427 -2.819217 -1.141902) in cell 11613 at location (1.62581 2.583516 0.3162408)
    max(U) = (5.744339 1.943255 1.742953) in cell 42073 at location (0.6547811 2.583192 6.962041)
    min(p_rgh) = -25.08268 in cell 60114 at location (3.48674 2.577765 6.965491)
    max(p_rgh) = 6.344987 in cell 0 at location (0.07191909 0.06538919 0.07790356)
    min(T) = 244.8359 in cell 12133 at location (4.217763 0.06583609 1.469786)
    max(T) = 349.1827 in cell 61711 at location (5.848936 3.193439 6.481073)

Time = 34

DILUPBiCGStab:  Solving for Ux, Initial residual = 0.01466393, Final residual = 7.777406e-07, No Iterations 2
DILUPBiCGStab:  Solving for Uy, Initial residual = 0.01544277, Final residual = 6.660258e-07, No Iterations 2
DILUPBiCGStab:  Solving for Uz, Initial residual = 0.009754491, Final residual = 4.365668e-07, No Iterations 2
DILUPBiCGStab:  Solving for T, Initial residual = 0.02213628, Final residual = 1.009241e-06, No Iterations 2
GAMG:  Solving for p_rgh, Initial residual = 0.06691763, Final residual = 0.0002875715, No Iterations 3
GAMG:  Solving for p_rgh, Initial residual = 0.001133277, Final residual = 8.109341e-06, No Iterations 6
GAMG:  Solving for p_rgh, Initial residual = 8.167354e-05, Final residual = 6.755969e-07, No Iterations 4
time step continuity errors : sum local = 7.995671e-07, global = 3.295257e-09, cumulative = -1.78656e-06
DILUPBiCGStab:  Solving for epsilon, Initial residual = 0.009803151, Final residual = 4.922735e-06, No Iterations 1
DILUPBiCGStab:  Solving for k, Initial residual = 0.00953977, Final residual = 4.227321e-07, No Iterations 2
ExecutionTime = 10.1 s  ClockTime = 25 s

fieldMinMax fieldMinMax1 write:
    min(U) = (-0.7241353 -2.912173 -1.176731) in cell 11612 at location (1.556101 2.583372 0.3159896)
    max(U) = (5.768456 1.813371 1.718558) in cell 42073 at location (0.6547811 2.583192 6.962041)
    min(p_rgh) = -25.12757 in cell 60114 at location (3.48674 2.577765 6.965491)
    max(p_rgh) = 6.36523 in cell 50689 at location (2.937521 1.270584 5.392523)
    min(T) = 245.3771 in cell 12749 at location (4.217443 0.0659067 1.609714)
    max(T) = 348.3608 in cell 61711 at location (5.848936 3.193439 6.481073)

Time = 35

DILUPBiCGStab:  Solving for Ux, Initial residual = 0.01473862, Final residual = 7.736872e-07, No Iterations 2
DILUPBiCGStab:  Solving for Uy, Initial residual = 0.01545407, Final residual = 6.439122e-07, No Iterations 2
DILUPBiCGStab:  Solving for Uz, Initial residual = 0.009671968, Final residual = 4.786009e-07, No Iterations 2
DILUPBiCGStab:  Solving for T, Initial residual = 0.02173875, Final residual = 1.000737e-06, No Iterations 2
GAMG:  Solving for p_rgh, Initial residual = 0.06680065, Final residual = 0.0002835475, No Iterations 3
GAMG:  Solving for p_rgh, Initial residual = 0.001105779, Final residual = 8.065715e-06, No Iterations 6
GAMG:  Solving for p_rgh, Initial residual = 7.319413e-05, Final residual = 6.890762e-07, No Iterations 4
time step continuity errors : sum local = 8.039338e-07, global = 6.333069e-09, cumulative = -1.780227e-06
DILUPBiCGStab:  Solving for epsilon, Initial residual = 0.009683566, Final residual = 4.72918e-06, No Iterations 1
DILUPBiCGStab:  Solving for k, Initial residual = 0.009844839, Final residual = 3.941743e-07, No Iterations 2
ExecutionTime = 10.38 s  ClockTime = 25 s

fieldMinMax fieldMinMax1 write:
    min(U) = (-0.8036779 -2.523214 -1.672615) in cell 18032 at location (3.076981 2.583954 0.3869219)
    max(U) = (5.788363 1.654253 1.674552) in cell 42073 at location (0.6547811 2.583192 6.962041)
    min(p_rgh) = -25.1477 in cell 60114 at location (3.48674 2.577765 6.965491)
    max(p_rgh) = 6.379757 in cell 50689 at location (2.937521 1.270584 5.392523)
    min(T) = 245.8661 in cell 12749 at location (4.217443 0.0659067 1.609714)
    max(T) = 347.4664 in cell 61711 at location (5.848936 3.193439 6.481073)

Time = 36

DILUPBiCGStab:  Solving for Ux, Initial residual = 0.01477125, Final residual = 7.619143e-07, No Iterations 2
DILUPBiCGStab:  Solving for Uy, Initial residual = 0.01545636, Final residual = 6.276901e-07, No Iterations 2
DILUPBiCGStab:  Solving for Uz, Initial residual = 0.009577836, Final residual = 5.559216e-07, No Iterations 2
DILUPBiCGStab:  Solving for T, Initial residual = 0.0214113, Final residual = 9.894109e-07, No Iterations 2
GAMG:  Solving for p_rgh, Initial residual = 0.06588421, Final residual = 0.0002723458, No Iterations 3
GAMG:  Solving for p_rgh, Initial residual = 0.001110728, Final residual = 7.924191e-06, No Iterations 6
GAMG:  Solving for p_rgh, Initial residual = 8.184901e-05, Final residual = 6.865957e-07, No Iterations 4
time step continuity errors : sum local = 7.890663e-07, global = -1.942716e-09, cumulative = -1.782169e-06
DILUPBiCGStab:  Solving for epsilon, Initial residual = 0.009641064, Final residual = 4.842409e-06, No Iterations 1
DILUPBiCGStab:  Solving for k, Initial residual = 0.0102061, Final residual = 3.718894e-07, No Iterations 2
ExecutionTime = 10.66 s  ClockTime = 25 s

fieldMinMax fieldMinMax1 write:
    min(U) = (-0.8314346 -2.474608 -1.74623) in cell 18032 at location (3.076981 2.583954 0.3869219)
    max(U) = (5.804001 1.468242 1.611326) in cell 42073 at location (0.6547811 2.583192 6.962041)
    min(p_rgh) = -25.15445 in cell 60114 at location (3.48674 2.577765 6.965491)
    max(p_rgh) = 6.277386 in cell 50689 at location (2.937521 1.270584 5.392523)
    min(T) = 246.5131 in cell 12749 at location (4.217443 0.0659067 1.609714)
    max(T) = 346.5215 in cell 61711 at location (5.848936 3.193439 6.481073)

Time = 37

DILUPBiCGStab:  Solving for Ux, Initial residual = 0.01480503, Final residual = 7.243456e-07, No Iterations 2
DILUPBiCGStab:  Solving for Uy, Initial residual = 0.01542213, Final residual = 6.143622e-07, No Iterations 2
DILUPBiCGStab:  Solving for Uz, Initial residual = 0.009517305, Final residual = 5.69886e-07, No Iterations 2
DILUPBiCGStab:  Solving for T, Initial residual = 0.02107094, Final residual = 9.72513e-07, No Iterations 2
GAMG:  Solving for p_rgh, Initial residual = 0.06538869, Final residual = 0.0002672737, No Iterations 3
GAMG:  Solving for p_rgh, Initial residual = 0.001070244, Final residual = 7.492206e-06, No Iterations 5
GAMG:  Solving for p_rgh, Initial residual = 6.902688e-05, Final residual = 6.28872e-07, No Iterations 4
time step continuity errors : sum local = 7.141577e-07, global = -5.155252e-10, cumulative = -1.782685e-06
DILUPBiCGStab:  Solving for epsilon, Initial residual = 0.009569312, Final residual = 4.826732e-06, No Iterations 1
DILUPBiCGStab:  Solving for k, Initial residual = 0.01060858, Final residual = 3.717587e-07, No Iterations 2
ExecutionTime = 10.93 s  ClockTime = 26 s

fieldMinMax fieldMinMax1 write:
    min(U) = (-0.4272078 -2.953148 -1.37468) in cell 17889 at location (2.93881 2.583284 0.3157189)
    max(U) = (5.815101 1.261524 1.528908) in cell 42073 at location (0.6547811 2.583192 6.962041)
    min(p_rgh) = -25.13501 in cell 60114 at location (3.48674 2.577765 6.965491)
    max(p_rgh) = 6.53059 in cell 50689 at location (2.937521 1.270584 5.392523)
    min(T) = 247.0965 in cell 13333 at location (4.356022 0.06582523 1.609846)
    max(T) = 345.5289 in cell 61711 at location (5.848936 3.193439 6.481073)

Time = 38

DILUPBiCGStab:  Solving for Ux, Initial residual = 0.01479982, Final residual = 6.587097e-07, No Iterations 2
DILUPBiCGStab:  Solving for Uy, Initial residual = 0.01535728, Final residual = 5.912903e-07, No Iterations 2
DILUPBiCGStab:  Solving for Uz, Initial residual = 0.009473418, Final residual = 9.390811e-06, No Iterations 1
DILUPBiCGStab:  Solving for T, Initial residual = 0.02073783, Final residual = 9.646887e-07, No Iterations 2
GAMG:  Solving for p_rgh, Initial residual = 0.06473905, Final residual = 0.0002598367, No Iterations 3
GAMG:  Solving for p_rgh, Initial residual = 0.001111063, Final residual = 8.393402e-06, No Iterations 6
GAMG:  Solving for p_rgh, Initial residual = 9.037642e-05, Final residual = 7.281575e-07, No Iterations 7
time step continuity errors : sum local = 8.198744e-07, global = -8.77092e-09, cumulative = -1.791456e-06
DILUPBiCGStab:  Solving for epsilon, Initial residual = 0.009535073, Final residual = 5.10019e-06, No Iterations 1
DILUPBiCGStab:  Solving for k, Initial residual = 0.01101137, Final residual = 3.89447e-07, No Iterations 2
ExecutionTime = 11.23 s  ClockTime = 26 s

fieldMinMax fieldMinMax1 write:
    min(U) = (-0.6676524 -2.808962 -1.448508) in cell 10960 at location (1.486759 2.583324 0.3158434)
    max(U) = (2.716838 0.2184476 3.096536) in cell 38428 at location (0.6545986 2.58902 6.538621)
    min(p_rgh) = -25.10255 in cell 60114 at location (3.48674 2.577765 6.965491)
    max(p_rgh) = 6.46296 in cell 50689 at location (2.937521 1.270584 5.392523)
    min(T) = 247.6844 in cell 12749 at location (4.217443 0.0659067 1.609714)
    max(T) = 344.4876 in cell 61711 at location (5.848936 3.193439 6.481073)

Time = 39

DILUPBiCGStab:  Solving for Ux, Initial residual = 0.01477038, Final residual = 6.104293e-07, No Iterations 2
DILUPBiCGStab:  Solving for Uy, Initial residual = 0.01525826, Final residual = 1.523542e-05, No Iterations 1
DILUPBiCGStab:  Solving for Uz, Initial residual = 0.009438765, Final residual = 9.290134e-06, No Iterations 1
DILUPBiCGStab:  Solving for T, Initial residual = 0.02045289, Final residual = 9.558339e-07, No Iterations 2
GAMG:  Solving for p_rgh, Initial residual = 0.06511728, Final residual = 0.0002537992, No Iterations 3
GAMG:  Solving for p_rgh, Initial residual = 0.001042543, Final residual = 7.134726e-06, No Iterations 5
GAMG:  Solving for p_rgh, Initial residual = 6.726959e-05, Final residual = 5.514605e-07, No Iterations 5
time step continuity errors : sum local = 6.156682e-07, global = 3.478654e-09, cumulative = -1.787977e-06
DILUPBiCGStab:  Solving for epsilon, Initial residual = 0.009365633, Final residual = 5.502865e-06, No Iterations 1
DILUPBiCGStab:  Solving for k, Initial residual = 0.01141512, Final residual = 4.121701e-07, No Iterations 2
ExecutionTime = 11.51 s  ClockTime = 26 s

fieldMinMax fieldMinMax1 write:
    min(U) = (-0.71709 -2.760713 -1.533236) in cell 10960 at location (1.486759 2.583324 0.3158434)
    max(U) = (2.759327 0.223696 3.127709) in cell 38428 at location (0.6545986 2.58902 6.538621)
    min(p_rgh) = -25.0396 in cell 60114 at location (3.48674 2.577765 6.965491)
    max(p_rgh) = 6.203503 in cell 50689 at location (2.937521 1.270584 5.392523)
    min(T) = 248.2644 in cell 13916 at location (4.355732 0.0658693 1.749874)
    max(T) = 343.4014 in cell 61711 at location (5.848936 3.193439 6.481073)

Time = 40

DILUPBiCGStab:  Solving for Ux, Initial residual = 0.01472012, Final residual = 5.924402e-07, No Iterations 2
DILUPBiCGStab:  Solving for Uy, Initial residual = 0.01514252, Final residual = 1.492578e-05, No Iterations 1
DILUPBiCGStab:  Solving for Uz, Initial residual = 0.009402424, Final residual = 9.256106e-06, No Iterations 1
DILUPBiCGStab:  Solving for T, Initial residual = 0.02018574, Final residual = 9.576664e-07, No Iterations 2
GAMG:  Solving for p_rgh, Initial residual = 0.06442679, Final residual = 0.0002498961, No Iterations 3
GAMG:  Solving for p_rgh, Initial residual = 0.001059784, Final residual = 4.862244e-06, No Iterations 5
GAMG:  Solving for p_rgh, Initial residual = 7.356864e-05, Final residual = 6.353845e-07, No Iterations 7
time step continuity errors : sum local = 7.032436e-07, global = 5.952883e-09, cumulative = -1.782024e-06
DILUPBiCGStab:  Solving for epsilon, Initial residual = 0.009219124, Final residual = 5.968104e-06, No Iterations 1
DILUPBiCGStab:  Solving for k, Initial residual = 0.01180057, Final residual = 4.256808e-07, No Iterations 2
ExecutionTime = 11.79 s  ClockTime = 27 s

fieldMinMax fieldMinMax1 write:
    min(U) = (-0.7731388 -2.706601 -1.624754) in cell 10960 at location (1.486759 2.583324 0.3158434)
    max(U) = (2.863447 2.905797 3.209247) in cell 49583 at location (2.869674 1.271858 5.323404)
    min(p_rgh) = -24.9325 in cell 60114 at location (3.48674 2.577765 6.965491)
    max(p_rgh) = 5.995359 in cell 50689 at location (2.937521 1.270584 5.392523)
    min(T) = 248.82 in cell 13916 at location (4.355732 0.0658693 1.749874)
    max(T) = 342.2676 in cell 61711 at location (5.848936 3.193439 6.481073)

Time = 41

DILUPBiCGStab:  Solving for Ux, Initial residual = 0.0146381, Final residual = 5.798593e-07, No Iterations 2
DILUPBiCGStab:  Solving for Uy, Initial residual = 0.01499223, Final residual = 1.461366e-05, No Iterations 1
DILUPBiCGStab:  Solving for Uz, Initial residual = 0.009364938, Final residual = 9.149804e-06, No Iterations 1
DILUPBiCGStab:  Solving for T, Initial residual = 0.01997346, Final residual = 9.529442e-07, No Iterations 2
GAMG:  Solving for p_rgh, Initial residual = 0.06434383, Final residual = 0.0002437598, No Iterations 3
GAMG:  Solving for p_rgh, Initial residual = 0.001040457, Final residual = 6.712627e-06, No Iterations 5
GAMG:  Solving for p_rgh, Initial residual = 6.935199e-05, Final residual = 5.810148e-07, No Iterations 7
time step continuity errors : sum local = 6.39699e-07, global = -6.814673e-09, cumulative = -1.788839e-06
DILUPBiCGStab:  Solving for epsilon, Initial residual = 0.009024388, Final residual = 6.297473e-06, No Iterations 1
DILUPBiCGStab:  Solving for k, Initial residual = 0.01220777, Final residual = 4.242808e-07, No Iterations 2
ExecutionTime = 12.08 s  ClockTime = 27 s

fieldMinMax fieldMinMax1 write:
    min(U) = (-0.6463892 -3.101291 -1.216577) in cell 17208 at location (3.007936 2.582985 0.2452895)
    max(U) = (3.061643 3.244428 3.118183) in cell 49583 at location (2.869674 1.271858 5.323404)
    min(p_rgh) = -24.79183 in cell 60114 at location (3.48674 2.577765 6.965491)
    max(p_rgh) = 5.886045 in cell 49557 at location (2.936884 1.341084 5.392017)
    min(T) = 249.5038 in cell 13916 at location (4.355732 0.0658693 1.749874)
    max(T) = 341.0852 in cell 61711 at location (5.848936 3.193439 6.481073)

Time = 42

DILUPBiCGStab:  Solving for Ux, Initial residual = 0.0145216, Final residual = 5.694692e-07, No Iterations 2
DILUPBiCGStab:  Solving for Uy, Initial residual = 0.01487825, Final residual = 1.427829e-05, No Iterations 1
DILUPBiCGStab:  Solving for Uz, Initial residual = 0.009362803, Final residual = 9.182021e-06, No Iterations 1
DILUPBiCGStab:  Solving for T, Initial residual = 0.01976878, Final residual = 9.496258e-07, No Iterations 2
GAMG:  Solving for p_rgh, Initial residual = 0.06397159, Final residual = 0.0002518764, No Iterations 3
GAMG:  Solving for p_rgh, Initial residual = 0.001061626, Final residual = 6.905595e-06, No Iterations 5
GAMG:  Solving for p_rgh, Initial residual = 7.639545e-05, Final residual = 7.637191e-07, No Iterations 6
time step continuity errors : sum local = 8.34804e-07, global = 7.178377e-09, cumulative = -1.78166e-06
DILUPBiCGStab:  Solving for epsilon, Initial residual = 0.00902702, Final residual = 6.426406e-06, No Iterations 1
DILUPBiCGStab:  Solving for k, Initial residual = 0.01265832, Final residual = 4.16947e-07, No Iterations 2
ExecutionTime = 12.36 s  ClockTime = 27 s

fieldMinMax fieldMinMax1 write:
    min(U) = (-0.6648049 -3.07899 -1.274659) in cell 17208 at location (3.007936 2.582985 0.2452895)
    max(U) = (3.256789 3.577386 3.04888) in cell 49583 at location (2.869674 1.271858 5.323404)
    min(p_rgh) = -24.59412 in cell 60114 at location (3.48674 2.577765 6.965491)
    max(p_rgh) = 6.151821 in cell 49557 at location (2.936884 1.341084 5.392017)
    min(T) = 250.0617 in cell 14518 at location (4.355507 0.06586793 1.889878)
    max(T) = 339.8521 in cell 61711 at location (5.848936 3.193439 6.481073)

Time = 43

DILUPBiCGStab:  Solving for Ux, Initial residual = 0.01435427, Final residual = 5.567358e-07, No Iterations 2
DILUPBiCGStab:  Solving for Uy, Initial residual = 0.01473263, Final residual = 1.386856e-05, No Iterations 1
DILUPBiCGStab:  Solving for Uz, Initial residual = 0.009346069, Final residual = 9.175428e-06, No Iterations 1
DILUPBiCGStab:  Solving for T, Initial residual = 0.01959568, Final residual = 9.516261e-07, No Iterations 2
GAMG:  Solving for p_rgh, Initial residual = 0.06412141, Final residual = 0.000277503, No Iterations 3
GAMG:  Solving for p_rgh, Initial residual = 0.001036296, Final residual = 8.593849e-06, No Iterations 8
GAMG:  Solving for p_rgh, Initial residual = 6.74221e-05, Final residual = 3.083417e-07, No Iterations 5
[...]

DILUPBiCGStab:  Solving for Ux, Initial residual = 0.0009814987, Final residual = 9.490063e-07, No Iterations 1
DILUPBiCGStab:  Solving for Uy, Initial residual = 0.0008985567, Final residual = 3.497562e-08, No Iterations 2
DILUPBiCGStab:  Solving for Uz, Initial residual = 0.0005695729, Final residual = 5.370752e-07, No Iterations 1
DILUPBiCGStab:  Solving for T, Initial residual = 0.0005909146, Final residual = 2.521198e-08, No Iterations 2
GAMG:  Solving for p_rgh, Initial residual = 0.003448996, Final residual = 3.173506e-05, No Iterations 2
GAMG:  Solving for p_rgh, Initial residual = 0.0001287395, Final residual = 6.357689e-07, No Iterations 4
GAMG:  Solving for p_rgh, Initial residual = 2.648822e-05, Final residual = 1.850115e-07, No Iterations 3
time step continuity errors : sum local = 1.25095e-07, global = 9.703774e-10, cumulative = -1.595064e-06
DILUPBiCGStab:  Solving for epsilon, Initial residual = 0.0003185482, Final residual = 1.056877e-07, No Iterations 1
DILUPBiCGStab:  Solving for k, Initial residual = 0.0005820137, Final residual = 2.382522e-08, No Iterations 2
ExecutionTime = 265.66 s  ClockTime = 289 s

fieldMinMax fieldMinMax1 write:
    min(U) = (-0.6564349 -3.544266 -2.484885) in cell 18031 at location (3.07679 2.656677 0.4605293)
    max(U) = (2.801783 7.38936 2.24781) in cell 49956 at location (1.34841 2.714838 6.966343)
    min(p_rgh) = -30.38744 in cell 15368 at location (2.731355 2.586547 0.4597651)
    max(p_rgh) = 38.1272 in cell 49960 at location (1.348404 2.581505 6.96249)
    min(T) = 290.9587 in cell 56987 at location (3.351963 1.683737 6.458568)
    max(T) = 302.9253 in cell 31459 at location (0.5863744 0.1016362 4.091792)

Time = 992

DILUPBiCGStab:  Solving for Ux, Initial residual = 0.0009765925, Final residual = 9.444222e-07, No Iterations 1
DILUPBiCGStab:  Solving for Uy, Initial residual = 0.0008923601, Final residual = 3.505236e-08, No Iterations 2
DILUPBiCGStab:  Solving for Uz, Initial residual = 0.0005665646, Final residual = 5.320527e-07, No Iterations 1
DILUPBiCGStab:  Solving for T, Initial residual = 0.0005866944, Final residual = 2.494616e-08, No Iterations 2
GAMG:  Solving for p_rgh, Initial residual = 0.00342465, Final residual = 3.174155e-05, No Iterations 2
GAMG:  Solving for p_rgh, Initial residual = 0.000116884, Final residual = 5.523371e-07, No Iterations 4
GAMG:  Solving for p_rgh, Initial residual = 1.951678e-05, Final residual = 1.394463e-07, No Iterations 4
time step continuity errors : sum local = 9.427264e-08, global = 1.09083e-09, cumulative = -1.593973e-06
DILUPBiCGStab:  Solving for epsilon, Initial residual = 0.0003198908, Final residual = 1.051273e-07, No Iterations 1
DILUPBiCGStab:  Solving for k, Initial residual = 0.0005811129, Final residual = 2.369687e-08, No Iterations 2
ExecutionTime = 265.92 s  ClockTime = 289 s

fieldMinMax fieldMinMax1 write:
    min(U) = (-0.6539839 -3.543923 -2.484894) in cell 18031 at location (3.07679 2.656677 0.4605293)
    max(U) = (2.807665 7.387255 2.249942) in cell 49956 at location (1.34841 2.714838 6.966343)
    min(p_rgh) = -30.37715 in cell 15368 at location (2.731355 2.586547 0.4597651)
    max(p_rgh) = 38.12051 in cell 49960 at location (1.348404 2.581505 6.96249)
    min(T) = 290.9598 in cell 56987 at location (3.351963 1.683737 6.458568)
    max(T) = 302.9256 in cell 31459 at location (0.5863744 0.1016362 4.091792)

Time = 993

DILUPBiCGStab:  Solving for Ux, Initial residual = 0.0009734327, Final residual = 9.422625e-07, No Iterations 1
DILUPBiCGStab:  Solving for Uy, Initial residual = 0.0008886076, Final residual = 3.459611e-08, No Iterations 2
DILUPBiCGStab:  Solving for Uz, Initial residual = 0.000563472, Final residual = 5.300472e-07, No Iterations 1
DILUPBiCGStab:  Solving for T, Initial residual = 0.0005831002, Final residual = 2.4615e-08, No Iterations 2
GAMG:  Solving for p_rgh, Initial residual = 0.003514923, Final residual = 3.1761e-05, No Iterations 2
GAMG:  Solving for p_rgh, Initial residual = 0.0001274696, Final residual = 1.216846e-06, No Iterations 3
GAMG:  Solving for p_rgh, Initial residual = 2.57255e-05, Final residual = 1.813408e-07, No Iterations 4
time step continuity errors : sum local = 1.225705e-07, global = 1.132786e-09, cumulative = -1.59284e-06
DILUPBiCGStab:  Solving for epsilon, Initial residual = 0.0003205355, Final residual = 1.043252e-07, No Iterations 1
DILUPBiCGStab:  Solving for k, Initial residual = 0.0005799251, Final residual = 2.353423e-08, No Iterations 2
ExecutionTime = 266.17 s  ClockTime = 289 s

fieldMinMax fieldMinMax1 write:
    min(U) = (-0.6515689 -3.543539 -2.484823) in cell 18031 at location (3.07679 2.656677 0.4605293)
    max(U) = (2.813663 7.384945 2.252117) in cell 49956 at location (1.34841 2.714838 6.966343)
    min(p_rgh) = -30.367 in cell 15368 at location (2.731355 2.586547 0.4597651)
    max(p_rgh) = 38.1125 in cell 49960 at location (1.348404 2.581505 6.96249)
    min(T) = 290.9608 in cell 56987 at location (3.351963 1.683737 6.458568)
    max(T) = 302.9259 in cell 31459 at location (0.5863744 0.1016362 4.091792)

Time = 994

DILUPBiCGStab:  Solving for Ux, Initial residual = 0.0009700486, Final residual = 9.399338e-07, No Iterations 1
DILUPBiCGStab:  Solving for Uy, Initial residual = 0.0008863456, Final residual = 3.451647e-08, No Iterations 2
DILUPBiCGStab:  Solving for Uz, Initial residual = 0.0005619274, Final residual = 5.247426e-07, No Iterations 1
DILUPBiCGStab:  Solving for T, Initial residual = 0.0005802015, Final residual = 2.431385e-08, No Iterations 2
GAMG:  Solving for p_rgh, Initial residual = 0.003473431, Final residual = 3.229939e-05, No Iterations 2
GAMG:  Solving for p_rgh, Initial residual = 0.0001256543, Final residual = 4.553189e-07, No Iterations 4
GAMG:  Solving for p_rgh, Initial residual = 2.084351e-05, Final residual = 1.218483e-07, No Iterations 3
time step continuity errors : sum local = 8.234385e-08, global = -3.856914e-10, cumulative = -1.593226e-06
DILUPBiCGStab:  Solving for epsilon, Initial residual = 0.0003204375, Final residual = 1.033108e-07, No Iterations 1
DILUPBiCGStab:  Solving for k, Initial residual = 0.000578244, Final residual = 2.338162e-08, No Iterations 2
ExecutionTime = 266.42 s  ClockTime = 290 s

fieldMinMax fieldMinMax1 write:
    min(U) = (-0.6491699 -3.543171 -2.484798) in cell 18031 at location (3.07679 2.656677 0.4605293)
    max(U) = (2.819728 7.382456 2.254321) in cell 49956 at location (1.34841 2.714838 6.966343)
    min(p_rgh) = -30.35754 in cell 15368 at location (2.731355 2.586547 0.4597651)
    max(p_rgh) = 38.10348 in cell 49960 at location (1.348404 2.581505 6.96249)
    min(T) = 290.9616 in cell 56987 at location (3.351963 1.683737 6.458568)
    max(T) = 302.9261 in cell 31459 at location (0.5863744 0.1016362 4.091792)

Time = 995

DILUPBiCGStab:  Solving for Ux, Initial residual = 0.0009633242, Final residual = 9.333887e-07, No Iterations 1
DILUPBiCGStab:  Solving for Uy, Initial residual = 0.0008848871, Final residual = 3.496216e-08, No Iterations 2
DILUPBiCGStab:  Solving for Uz, Initial residual = 0.000559515, Final residual = 5.194922e-07, No Iterations 1
DILUPBiCGStab:  Solving for T, Initial residual = 0.0005765672, Final residual = 2.395588e-08, No Iterations 2
GAMG:  Solving for p_rgh, Initial residual = 0.003374415, Final residual = 3.211352e-05, No Iterations 2
GAMG:  Solving for p_rgh, Initial residual = 0.000127283, Final residual = 1.240081e-06, No Iterations 3
GAMG:  Solving for p_rgh, Initial residual = 2.62817e-05, Final residual = 2.175822e-07, No Iterations 4
time step continuity errors : sum local = 1.469982e-07, global = 1.641338e-09, cumulative = -1.591585e-06
DILUPBiCGStab:  Solving for epsilon, Initial residual = 0.000319489, Final residual = 1.020392e-07, No Iterations 1
DILUPBiCGStab:  Solving for k, Initial residual = 0.0005759687, Final residual = 2.327095e-08, No Iterations 2
ExecutionTime = 266.68 s  ClockTime = 290 s

fieldMinMax fieldMinMax1 write:
    min(U) = (-0.6467672 -3.542784 -2.484692) in cell 18031 at location (3.07679 2.656677 0.4605293)
    max(U) = (2.825813 7.37981 2.256542) in cell 49956 at location (1.34841 2.714838 6.966343)
    min(p_rgh) = -30.35168 in cell 15368 at location (2.731355 2.586547 0.4597651)
    max(p_rgh) = 38.09367 in cell 49960 at location (1.348404 2.581505 6.96249)
    min(T) = 290.9623 in cell 56987 at location (3.351963 1.683737 6.458568)
    max(T) = 302.9265 in cell 31459 at location (0.5863744 0.1016362 4.091792)

Time = 996

DILUPBiCGStab:  Solving for Ux, Initial residual = 0.000956733, Final residual = 9.249759e-07, No Iterations 1
DILUPBiCGStab:  Solving for Uy, Initial residual = 0.0008827669, Final residual = 3.457352e-08, No Iterations 2
DILUPBiCGStab:  Solving for Uz, Initial residual = 0.0005561573, Final residual = 5.157511e-07, No Iterations 1
DILUPBiCGStab:  Solving for T, Initial residual = 0.0005719313, Final residual = 2.361505e-08, No Iterations 2
GAMG:  Solving for p_rgh, Initial residual = 0.003451838, Final residual = 3.18973e-05, No Iterations 2
GAMG:  Solving for p_rgh, Initial residual = 0.0001213319, Final residual = 9.925019e-07, No Iterations 4
GAMG:  Solving for p_rgh, Initial residual = 2.07415e-05, Final residual = 1.998755e-07, No Iterations 4
time step continuity errors : sum local = 1.350284e-07, global = 2.298401e-09, cumulative = -1.589286e-06
DILUPBiCGStab:  Solving for epsilon, Initial residual = 0.0003185818, Final residual = 1.005842e-07, No Iterations 1
DILUPBiCGStab:  Solving for k, Initial residual = 0.0005732039, Final residual = 2.315864e-08, No Iterations 2
ExecutionTime = 266.95 s  ClockTime = 290 s

fieldMinMax fieldMinMax1 write:
    min(U) = (-0.644388 -3.542416 -2.484589) in cell 18031 at location (3.07679 2.656677 0.4605293)
    max(U) = (2.831874 7.37703 2.258763) in cell 49956 at location (1.34841 2.714838 6.966343)
    min(p_rgh) = -30.34434 in cell 15368 at location (2.731355 2.586547 0.4597651)
    max(p_rgh) = 38.08319 in cell 49960 at location (1.348404 2.581505 6.96249)
    min(T) = 290.9629 in cell 56987 at location (3.351963 1.683737 6.458568)
    max(T) = 302.9267 in cell 31459 at location (0.5863744 0.1016362 4.091792)

Time = 997

DILUPBiCGStab:  Solving for Ux, Initial residual = 0.0009520315, Final residual = 9.180535e-07, No Iterations 1
DILUPBiCGStab:  Solving for Uy, Initial residual = 0.000881694, Final residual = 3.4779e-08, No Iterations 2
DILUPBiCGStab:  Solving for Uz, Initial residual = 0.0005532224, Final residual = 5.136572e-07, No Iterations 1
DILUPBiCGStab:  Solving for T, Initial residual = 0.0005693256, Final residual = 2.319619e-08, No Iterations 2
GAMG:  Solving for p_rgh, Initial residual = 0.00339762, Final residual = 3.259865e-05, No Iterations 2
GAMG:  Solving for p_rgh, Initial residual = 0.0001300878, Final residual = 5.762737e-07, No Iterations 4
GAMG:  Solving for p_rgh, Initial residual = 2.611093e-05, Final residual = 1.654949e-07, No Iterations 3
time step continuity errors : sum local = 1.11776e-07, global = -1.106251e-11, cumulative = -1.589297e-06
DILUPBiCGStab:  Solving for epsilon, Initial residual = 0.0003176471, Final residual = 9.875775e-08, No Iterations 1
DILUPBiCGStab:  Solving for k, Initial residual = 0.0005704277, Final residual = 2.304867e-08, No Iterations 2
ExecutionTime = 267.21 s  ClockTime = 291 s

fieldMinMax fieldMinMax1 write:
    min(U) = (-0.6420378 -3.54203 -2.484396) in cell 18031 at location (3.07679 2.656677 0.4605293)
    max(U) = (2.837862 7.374143 2.260972) in cell 49956 at location (1.34841 2.714838 6.966343)
    min(p_rgh) = -30.33792 in cell 15368 at location (2.731355 2.586547 0.4597651)
    max(p_rgh) = 38.07176 in cell 49960 at location (1.348404 2.581505 6.96249)
    min(T) = 290.9634 in cell 56987 at location (3.351963 1.683737 6.458568)
    max(T) = 302.927 in cell 31459 at location (0.5863744 0.1016362 4.091792)

Time = 998

DILUPBiCGStab:  Solving for Ux, Initial residual = 0.0009454411, Final residual = 9.096568e-07, No Iterations 1
DILUPBiCGStab:  Solving for Uy, Initial residual = 0.0008811155, Final residual = 3.468944e-08, No Iterations 2
DILUPBiCGStab:  Solving for Uz, Initial residual = 0.0005501828, Final residual = 5.108224e-07, No Iterations 1
DILUPBiCGStab:  Solving for T, Initial residual = 0.0005648465, Final residual = 2.282882e-08, No Iterations 2
GAMG:  Solving for p_rgh, Initial residual = 0.003375847, Final residual = 3.237073e-05, No Iterations 2
GAMG:  Solving for p_rgh, Initial residual = 0.0001258573, Final residual = 8.760503e-07, No Iterations 4
GAMG:  Solving for p_rgh, Initial residual = 2.16866e-05, Final residual = 2.011653e-07, No Iterations 3
time step continuity errors : sum local = 1.358653e-07, global = 3.181278e-09, cumulative = -1.586116e-06
DILUPBiCGStab:  Solving for epsilon, Initial residual = 0.0003161468, Final residual = 9.673025e-08, No Iterations 1
DILUPBiCGStab:  Solving for k, Initial residual = 0.0005671864, Final residual = 2.284951e-08, No Iterations 2
ExecutionTime = 267.46 s  ClockTime = 291 s

fieldMinMax fieldMinMax1 write:
    min(U) = (-0.6397306 -3.541663 -2.484194) in cell 18031 at location (3.07679 2.656677 0.4605293)
    max(U) = (2.843748 7.371174 2.263155) in cell 49956 at location (1.34841 2.714838 6.966343)
    min(p_rgh) = -30.33064 in cell 15368 at location (2.731355 2.586547 0.4597651)
    max(p_rgh) = 38.05933 in cell 49960 at location (1.348404 2.581505 6.96249)
    min(T) = 290.9639 in cell 56987 at location (3.351963 1.683737 6.458568)
    max(T) = 302.9272 in cell 31459 at location (0.5863744 0.1016362 4.091792)

Time = 999

DILUPBiCGStab:  Solving for Ux, Initial residual = 0.0009385155, Final residual = 9.027509e-07, No Iterations 1
DILUPBiCGStab:  Solving for Uy, Initial residual = 0.0008798862, Final residual = 3.496677e-08, No Iterations 2
DILUPBiCGStab:  Solving for Uz, Initial residual = 0.0005457499, Final residual = 5.071434e-07, No Iterations 1
DILUPBiCGStab:  Solving for T, Initial residual = 0.0005598091, Final residual = 2.245293e-08, No Iterations 2
GAMG:  Solving for p_rgh, Initial residual = 0.003362389, Final residual = 3.15349e-05, No Iterations 2
GAMG:  Solving for p_rgh, Initial residual = 0.0001299456, Final residual = 8.413456e-07, No Iterations 4
GAMG:  Solving for p_rgh, Initial residual = 2.664436e-05, Final residual = 1.914734e-07, No Iterations 3
time step continuity errors : sum local = 1.293001e-07, global = -1.066131e-09, cumulative = -1.587182e-06
DILUPBiCGStab:  Solving for epsilon, Initial residual = 0.000314699, Final residual = 9.44745e-08, No Iterations 1
DILUPBiCGStab:  Solving for k, Initial residual = 0.0005635821, Final residual = 2.263515e-08, No Iterations 2
ExecutionTime = 267.71 s  ClockTime = 291 s

fieldMinMax fieldMinMax1 write:
    min(U) = (-0.6374612 -3.54129 -2.483908) in cell 18031 at location (3.07679 2.656677 0.4605293)
    max(U) = (2.849492 7.36815 2.265299) in cell 49956 at location (1.34841 2.714838 6.966343)
    min(p_rgh) = -30.32381 in cell 15368 at location (2.731355 2.586547 0.4597651)
    max(p_rgh) = 38.04674 in cell 49960 at location (1.348404 2.581505 6.96249)
    min(T) = 290.9642 in cell 56987 at location (3.351963 1.683737 6.458568)
    max(T) = 302.9276 in cell 31459 at location (0.5863744 0.1016362 4.091792)

Time = 1000

DILUPBiCGStab:  Solving for Ux, Initial residual = 0.000931646, Final residual = 8.955792e-07, No Iterations 1
DILUPBiCGStab:  Solving for Uy, Initial residual = 0.0008789495, Final residual = 3.501006e-08, No Iterations 2
DILUPBiCGStab:  Solving for Uz, Initial residual = 0.0005430856, Final residual = 5.044698e-07, No Iterations 1
DILUPBiCGStab:  Solving for T, Initial residual = 0.0005563387, Final residual = 2.221446e-08, No Iterations 2
GAMG:  Solving for p_rgh, Initial residual = 0.003296714, Final residual = 3.100584e-05, No Iterations 2
GAMG:  Solving for p_rgh, Initial residual = 0.0001181531, Final residual = 8.721872e-07, No Iterations 4
GAMG:  Solving for p_rgh, Initial residual = 2.094898e-05, Final residual = 1.573575e-07, No Iterations 4
time step continuity errors : sum local = 1.062708e-07, global = 1.339162e-09, cumulative = -1.585843e-06
DILUPBiCGStab:  Solving for epsilon, Initial residual = 0.00031316, Final residual = 9.203286e-08, No Iterations 1
DILUPBiCGStab:  Solving for k, Initial residual = 0.0005596141, Final residual = 2.246228e-08, No Iterations 2
ExecutionTime = 268.26 s  ClockTime = 294 s

fieldMinMax fieldMinMax1 write:
    min(U) = (-0.6352403 -3.540937 -2.483611) in cell 18031 at location (3.07679 2.656677 0.4605293)
    max(U) = (2.855071 7.365089 2.267396) in cell 49956 at location (1.34841 2.714838 6.966343)
    min(p_rgh) = -30.31692 in cell 15368 at location (2.731355 2.586547 0.4597651)
    max(p_rgh) = 38.0336 in cell 49960 at location (1.348404 2.581505 6.96249)
    min(T) = 290.9645 in cell 56987 at location (3.351963 1.683737 6.458568)
    max(T) = 302.9278 in cell 31459 at location (0.5863744 0.1016362 4.091792)

    functionObjects::turbulenceFields turbulenceFields1 writing field: turbulenceProperties:nuEff
    functionObjects::turbulenceFields turbulenceFields1 writing field: turbulenceProperties:R
    functionObjects::turbulenceFields turbulenceFields1 writing field: turbulenceProperties:I
    functionObjects::turbulenceFields turbulenceFields1 writing field: turbulenceProperties:L
    functionObjects::turbulenceFields turbulenceFields1 writing field: turbulenceProperties:devReff
yPlus yPlus write:
    writing field yPlus
    patch crac01_inlet y+ : min = 23.24696, max = 354.7923, average = 118.1285
    patch crac01_outlet y+ : min = 1522.664, max = 6024.627, average = 3954.366
    patch crac02_inlet y+ : min = 40.34493, max = 366.5285, average = 118.3095
    patch crac02_outlet y+ : min = 1060.698, max = 5509.231, average = 3538.346
    patch crac03_inlet y+ : min = 51.36969, max = 395.8315, average = 131.6098
    patch crac03_outlet y+ : min = 992.1781, max = 5561.086, average = 3477.355
    patch crac04_inlet y+ : min = 32.27487, max = 389.6506, average = 123.3939
    patch crac04_outlet y+ : min = 1666.536, max = 6023.249, average = 4091.968
    patch rack01_inlet y+ : min = 91.83128, max = 418.1877, average = 199.2388
    patch rack01_outlet y+ : min = 1053.963, max = 2589.634, average = 1568.345
    patch rack02_inlet y+ : min = 138.6429, max = 733.8525, average = 354.348
    patch rack02_outlet y+ : min = 669.5896, max = 2454.789, average = 1224.548
    patch rack03_inlet y+ : min = 109.2635, max = 327.8249, average = 191.9453
    patch rack03_outlet y+ : min = 568.5189, max = 2042.367, average = 1128.907
    patch rack04_inlet y+ : min = 109.764, max = 315.0193, average = 161.1099
    patch rack04_outlet y+ : min = 430.4503, max = 1106.806, average = 666.6722
    patch rack05_inlet y+ : min = 82.54524, max = 224.253, average = 120.8995
    patch rack05_outlet y+ : min = 468.2036, max = 1037.575, average = 761.2362
    patch rack06_inlet y+ : min = 86.36989, max = 198.3479, average = 122.9044
    patch rack06_outlet y+ : min = 587.7778, max = 1179.271, average = 851.3881
    patch rack07_inlet y+ : min = 74.32818, max = 265.8135, average = 165.4301
    patch rack07_outlet y+ : min = 234.9851, max = 1383.364, average = 653.2986
    patch rack08_inlet y+ : min = 60.71988, max = 212.5384, average = 143.1922
    patch rack08_outlet y+ : min = 586.5814, max = 1087.343, average = 870.9404
    patch rack09_inlet y+ : min = 33.98055, max = 202.4253, average = 105.3264
    patch rack09_outlet y+ : min = 228.9144, max = 779.8817, average = 584.8135
    patch rack10_inlet y+ : min = 124.4082, max = 327.8049, average = 242.9985
    patch rack10_outlet y+ : min = 640.3684, max = 1167.875, average = 923.3518
    patch walls y+ : min = 4.805233, max = 157.6945, average = 48.65053
    patch hole y+ : min = 0, max = 0, average = 0
    functionObjects::pressure staticPressure writing field: static(p)
    functionObjects::pressure totalPressure writing field: total(p)
End

